1

                    Execution started at 20251124.001420         



                    ---------------------------------------
                                     SWAN
                    SIMULATION OF WAVES IN NEAR SHORE AREAS
                             VERSION NUMBER 41.51               
                    ---------------------------------------


    
 $ SWAN INPUT: HIKKADUWA (7 DAY / 3 HR)
    
 PROJECT 'Hikkaduwa' '1'
    
 MODE NONSTATIONARY
    
 COORDINATES SPHERICAL
    
 
    
 $ 1. GRID
    
 CGRID REGULAR 80.352083 5.852083 0.0 0.1958 0.1458 47 35 CIRCLE 36 0.05 1.0 24
 Resolution in sigma-space: df/f =  0.1329
    
 INPGRID BOTTOM 80.352083 5.852083 0.0 47 35 0.004167 0.004167 EXC -99
    
 READGRID BOTTOM 1 'mirissa.bot' 1 0 FREE
 ** Warning          : Point removed from computational grid
Point with index (    47,    14) was removed from computational grid because it is an isolated wet point or is part of a 1D configuration or 1D connection.
    
 
    
 $ 2. BOUNDARIES
    
 BOUND SHAPE JONSWAP 3.3 PEAK DSPR DEGREES
    
 BOUNDSPEC SIDE SOUTH CONSTANT FILE 'mirissa_boundary.bnd'
    
 BOUNDSPEC SIDE WEST CONSTANT FILE 'mirissa_boundary_copy.bnd'
    
 
    
 $ 3. PHYSICS
    
 BREAKING CON 1.0 0.73
    
 FRICTION JONSWAP CONSTANT 0.067
    
 OFF WCAP
    
 OFF QUAD
    
 
    
 $ 4. NUMERICS
    
 PROP BSBT
    
 NUMERIC STOPC 0.005 0.005 0.005 95. STAT 15
    
 
    
 $ 5. OUTPUT
    
 POINTS 'DEEP' 80.4000 5.8600
    
 POINTS 'MID'  80.4300 5.9000
    
 POINTS 'SURF' 80.4520 5.9450
    
 
    
 $ CHANGE: Output every 3 Hours now
    
 TABLE 'DEEP' HEAD 'deep_forecast.tbl' HS TPS DIR DEPTH QB OUTPUT 20251123.1800 3 HR
    
 TABLE 'MID'  HEAD 'mid_forecast.tbl'  HS TPS DIR DEPTH QB OUTPUT 20251123.1800 3 HR
    
 TABLE 'SURF' HEAD 'surf_forecast.tbl' HS TPS DIR DEPTH QB OUTPUT 20251123.1800 3 HR
    
 
    
 $ 6. RUN
    
 COMPUTE 20251123.1800 15 MIN 20251130.1800
 ** Warning          : Limiter is de-activated in case of no quadruplets
 Boundary data type TPAR processed, time:       64800.
 Boundary data type TPAR processed, time:       64800.
 Time of computation ->  20251123.181500      in sec:      65700.
 Boundary data type TPAR processed, time:       75600.
 Boundary data type TPAR processed, time:       75600.

----------------------------------------------------------------
                  COMPUTATIONAL PART OF SWAN
----------------------------------------------------------------

 Gridresolution       : MXC              48 MYC             36
                      : MCGRD          1202
                      : MSC              25 MDC             36
                      : MTC             672
                      : NSTATC            1 ITERMX           1
 Propagation flags    : ITFRE             1 IREFR            1
 Source term flags    : IBOT              1 ISURF            1
                      : IWCAP             0 IWIND            0
                      : ITRIAD            0 IQUAD            0
                      : IBRAG             0 IQCM             0
                      : IVEG              0 ITURBV           0
                      : IMUD              0 IICE             0
 Spatial step         : DX       0.4166E-02 DY      0.4166E-02
 Spectral bin         : df/f     0.1329E+00 DDIR    0.1000E+02
 Physical constants   : GRAV     0.9810E+01 RHO     0.1025E+04
 Wind input           : WSPEED   0.0000E+00 DIR     0.0000E+00
                      : ICEWIND  0.00
 Tail parameters      : E(f)     0.4000E+01 E(k)    0.2500E+01
                      : A(f)     0.5000E+01 A(k)    0.3000E+01
 Accuracy parameters  : DREL     0.5000E-02 NPNTS   0.9500E+02
                      : DHABS    0.5000E-02 CURVAT  0.5000E-02
                      : GRWMX    0.1000E+21
 Drying/flooding      : LEVEL    0.0000E+00 DEPMIN  0.5000E-01
 The Cartesian convention for wind and wave directions is used
 Scheme for geographic propagation is BSBT  
 Scheme geogr. space  : PROPSC            1 ICMAX            5
 Scheme spectral space: CSS      0.5000E+00 CDD     0.5000E+00
 Current is off
 Quadruplets is off
 Triads is off
 Bragg scattering is off
 QC scattering is off
 Surfbeat (IEM) is off
 JONSWAP (`73)        : GAMMA    0.6700E-01
 Vegetation is off
 Turbulence is off
 Fluid mud is off
 Dissipation by sea ice is off
 Whitecapping is off
 Battjes&Janssen (`78): ALPHA    0.1000E+01 GAMMA   0.7300E+00
 Set-up is off
 Diffraction is off
 Janssen (`89,`90)    : ALPHA    0.1000E-01 KAPPA   0.4100E+00
 Janssen (`89,`90)    : RHOA     0.1280E+01 RHOW    0.1025E+04

 1st and 2nd gen. wind: CF10     0.1880E+03 CF20    0.5900E+00
                      : CF30     0.1200E+00 CF40    0.2500E+03
                      : CF50     0.2300E-02 CF60   -0.2230E+00
                      : CF70     0.0000E+00 CF80   -0.5600E+00
                      : RHOAW    0.1249E-02 EDMLPM  0.3600E-02
                      : CDRAG    0.1230E-02 UMIN    0.1000E+01
                      : LIM_PM   0.1300E+00

 not possible to compute, first iteration

  ** WARNING : Differences in wave height at the boundary
 Relative difference between input and computation >=   0.10
                         Hs[m]      Hs[m]      Hs[-]
     ix    iy  index   (input) (computed) (relative)
  --------------------------------------------------
     1    35     29       1.28       0.91       0.29
     1    34     28       1.28       0.78       0.39
     1    33     27       1.28       0.72       0.43
     1    32     26       1.28       0.69       0.46
     1    31     25       1.28       0.68       0.47
     1    30     24       1.28       0.67       0.48
     1    29     23       1.28       0.66       0.48
     1    28     22       1.28       0.66       0.49
     1    27     21       1.28       0.65       0.49
     1    26     20       1.28       0.65       0.49
     1    25     19       1.28       0.65       0.49
     1    24     18       1.28       0.65       0.49
     1    23     17       1.28       0.65       0.49
     1    22     16       1.28       0.65       0.49
     1    21     15       1.28       0.65       0.49
     1    20     14       1.28       0.65       0.49
     1    19     13       1.28       0.65       0.49
     1    18     12       1.28       0.65       0.49
     1    17     11       1.28       0.65       0.49
     1    16     10       1.28       0.65       0.49
     1    15      9       1.28       0.65       0.49
     1    14      8       1.28       0.65       0.49
     1    13      7       1.28       0.65       0.50
     1    12      6       1.28       0.65       0.50
     1    11      5       1.28       0.64       0.50
     1    10      4       1.28       0.63       0.51
     1     9      3       1.28       0.63       0.51
     1     8      2       1.28       0.74       0.42

 Time of computation ->  20251123.183000      in sec:      66600.
 not possible to compute, first iteration

  ** WARNING : Differences in wave height at the boundary
 Relative difference between input and computation >=   0.10
                         Hs[m]      Hs[m]      Hs[-]
     ix    iy  index   (input) (computed) (relative)
  --------------------------------------------------
     1    35     29       1.29       0.90       0.30
     1    34     28       1.29       0.78       0.40
     1    33     27       1.29       0.72       0.45
     1    32     26       1.29       0.69       0.47
     1    31     25       1.29       0.67       0.48
     1    30     24       1.29       0.66       0.49
     1    29     23       1.29       0.65       0.50
     1    28     22       1.29       0.65       0.50
     1    27     21       1.29       0.65       0.50
     1    26     20       1.29       0.64       0.50
     1    25     19       1.29       0.64       0.50
     1    24     18       1.29       0.64       0.50
     1    23     17       1.29       0.64       0.50
     1    22     16       1.29       0.64       0.50
     1    21     15       1.29       0.64       0.50
     1    20     14       1.29       0.64       0.50
     1    19     13       1.29       0.64       0.51
     1    18     12       1.29       0.64       0.51
     1    17     11       1.29       0.64       0.51
     1    16     10       1.29       0.64       0.51
     1    15      9       1.29       0.64       0.51
     1    14      8       1.29       0.64       0.51
     1    13      7       1.29       0.64       0.51
     1    12      6       1.29       0.64       0.51
     1    11      5       1.29       0.63       0.51
     1    10      4       1.29       0.62       0.52
     1     9      3       1.29       0.63       0.52
     1     8      2       1.29       0.75       0.42

 Time of computation ->  20251123.184500      in sec:      67500.
 not possible to compute, first iteration

  ** WARNING : Differences in wave height at the boundary
 Relative difference between input and computation >=   0.10
                         Hs[m]      Hs[m]      Hs[-]
     ix    iy  index   (input) (computed) (relative)
  --------------------------------------------------
     1    35     29       1.31       0.90       0.31
     1    34     28       1.31       0.77       0.41
     1    33     27       1.31       0.71       0.45
     1    32     26       1.31       0.68       0.48
     1    31     25       1.31       0.66       0.49
     1    30     24       1.31       0.65       0.50
     1    29     23       1.31       0.65       0.50
     1    28     22       1.31       0.64       0.51
     1    27     21       1.31       0.64       0.51
     1    26     20       1.31       0.64       0.51
     1    25     19       1.31       0.64       0.51
     1    24     18       1.31       0.64       0.51
     1    23     17       1.31       0.64       0.51
     1    22     16       1.31       0.64       0.51
     1    21     15       1.31       0.64       0.51
     1    20     14       1.31       0.64       0.51
     1    19     13       1.31       0.64       0.51
     1    18     12       1.31       0.64       0.51
     1    17     11       1.31       0.64       0.51
     1    16     10       1.31       0.64       0.51
     1    15      9       1.31       0.63       0.51
     1    14      8       1.31       0.63       0.51
     1    13      7       1.31       0.63       0.52
     1    12      6       1.31       0.63       0.52
     1    11      5       1.31       0.63       0.52
     1    10      4       1.31       0.61       0.53
     1     9      3       1.31       0.62       0.52
     1     8      2       1.31       0.76       0.42

 Time of computation ->  20251123.190000      in sec:      68400.
 not possible to compute, first iteration

  ** WARNING : Differences in wave height at the boundary
 Relative difference between input and computation >=   0.10
                         Hs[m]      Hs[m]      Hs[-]
     ix    iy  index   (input) (computed) (relative)
  --------------------------------------------------
     1    35     29       1.32       0.90       0.31
     1    34     28       1.32       0.77       0.41
     1    33     27       1.32       0.71       0.46
     1    32     26       1.32       0.68       0.48
     1    31     25       1.32       0.67       0.50
     1    30     24       1.32       0.66       0.50
     1    29     23       1.32       0.65       0.51
     1    28     22       1.32       0.65       0.51
     1    27     21       1.32       0.64       0.51
     1    26     20       1.32       0.64       0.51
     1    25     19       1.32       0.64       0.52
     1    24     18       1.32       0.64       0.52
     1    23     17       1.32       0.64       0.52
     1    22     16       1.32       0.64       0.52
     1    21     15       1.32       0.64       0.52
     1    20     14       1.32       0.64       0.52
     1    19     13       1.32       0.64       0.52
     1    18     12       1.32       0.64       0.52
     1    17     11       1.32       0.64       0.52
     1    16     10       1.32       0.64       0.52
     1    15      9       1.32       0.63       0.52
     1    14      8       1.32       0.63       0.52
     1    13      7       1.32       0.63       0.52
     1    12      6       1.32       0.63       0.52
     1    11      5       1.32       0.62       0.53
     1    10      4       1.32       0.61       0.54
     1     9      3       1.32       0.62       0.53
     1     8      2       1.32       0.77       0.42

 Time of computation ->  20251123.191500      in sec:      69300.
 not possible to compute, first iteration

  ** WARNING : Differences in wave height at the boundary
 Relative difference between input and computation >=   0.10
                         Hs[m]      Hs[m]      Hs[-]
     ix    iy  index   (input) (computed) (relative)
  --------------------------------------------------
     1    35     29       1.33       0.91       0.32
     1    34     28       1.33       0.78       0.42
     1    33     27       1.33       0.72       0.46
     1    32     26       1.33       0.69       0.48
     1    31     25       1.33       0.67       0.49
     1    30     24       1.33       0.66       0.50
     1    29     23       1.33       0.66       0.51
     1    28     22       1.33       0.65       0.51
     1    27     21       1.33       0.65       0.51
     1    26     20       1.33       0.65       0.52
     1    25     19       1.33       0.64       0.52
     1    24     18       1.33       0.64       0.52
     1    23     17       1.33       0.64       0.52
     1    22     16       1.33       0.64       0.52
     1    21     15       1.33       0.64       0.52
     1    20     14       1.33       0.64       0.52
     1    19     13       1.33       0.64       0.52
     1    18     12       1.33       0.64       0.52
     1    17     11       1.33       0.64       0.52
     1    16     10       1.33       0.64       0.52
     1    15      9       1.33       0.64       0.52
     1    14      8       1.33       0.64       0.52
     1    13      7       1.33       0.63       0.53
     1    12      6       1.33       0.63       0.53
     1    11      5       1.33       0.62       0.54
     1    10      4       1.33       0.61       0.55
     1     9      3       1.33       0.62       0.53
     1     8      2       1.33       0.78       0.41

 Time of computation ->  20251123.193000      in sec:      70200.
 not possible to compute, first iteration

  ** WARNING : Differences in wave height at the boundary
 Relative difference between input and computation >=   0.10
                         Hs[m]      Hs[m]      Hs[-]
     ix    iy  index   (input) (computed) (relative)
  --------------------------------------------------
     1    35     29       1.35       0.92       0.32
     1    34     28       1.35       0.78       0.42
     1    33     27       1.35       0.73       0.46
     1    32     26       1.35       0.70       0.48
     1    31     25       1.35       0.69       0.49
     1    30     24       1.35       0.68       0.50
     1    29     23       1.35       0.67       0.50
     1    28     22       1.35       0.66       0.51
     1    27     21       1.35       0.66       0.51
     1    26     20       1.35       0.66       0.51
     1    25     19       1.35       0.65       0.51
     1    24     18       1.35       0.65       0.52
     1    23     17       1.35       0.65       0.52
     1    22     16       1.35       0.65       0.52
     1    21     15       1.35       0.65       0.52
     1    20     14       1.35       0.65       0.52
     1    19     13       1.35       0.65       0.52
     1    18     12       1.35       0.65       0.52
     1    17     11       1.35       0.65       0.52
     1    16     10       1.35       0.65       0.52
     1    15      9       1.35       0.65       0.52
     1    14      8       1.35       0.64       0.52
     1    13      7       1.35       0.64       0.53
     1    12      6       1.35       0.63       0.53
     1    11      5       1.35       0.62       0.54
     1    10      4       1.35       0.61       0.55
     1     9      3       1.35       0.63       0.53
     1     8      2       1.35       0.80       0.41

 Time of computation ->  20251123.194500      in sec:      71100.
 not possible to compute, first iteration

  ** WARNING : Differences in wave height at the boundary
 Relative difference between input and computation >=   0.10
                         Hs[m]      Hs[m]      Hs[-]
     ix    iy  index   (input) (computed) (relative)
  --------------------------------------------------
     1    35     29       1.36       0.93       0.32
     1    34     28       1.36       0.79       0.42
     1    33     27       1.36       0.74       0.46
     1    32     26       1.36       0.71       0.48
     1    31     25       1.36       0.70       0.49
     1    30     24       1.36       0.69       0.49
     1    29     23       1.36       0.68       0.50
     1    28     22       1.36       0.67       0.50
     1    27     21       1.36       0.67       0.51
     1    26     20       1.36       0.67       0.51
     1    25     19       1.36       0.66       0.51
     1    24     18       1.36       0.66       0.51
     1    23     17       1.36       0.66       0.52
     1    22     16       1.36       0.66       0.51
     1    21     15       1.36       0.66       0.51
     1    20     14       1.36       0.66       0.51
     1    19     13       1.36       0.66       0.51
     1    18     12       1.36       0.66       0.51
     1    17     11       1.36       0.66       0.51
     1    16     10       1.36       0.66       0.52
     1    15      9       1.36       0.65       0.52
     1    14      8       1.36       0.65       0.52
     1    13      7       1.36       0.64       0.53
     1    12      6       1.36       0.63       0.53
     1    11      5       1.36       0.62       0.54
     1    10      4       1.36       0.61       0.55
     1     9      3       1.36       0.63       0.54
     1     8      2       1.36       0.81       0.41

 Time of computation ->  20251123.200000      in sec:      72000.
 not possible to compute, first iteration

  ** WARNING : Differences in wave height at the boundary
 Relative difference between input and computation >=   0.10
                         Hs[m]      Hs[m]      Hs[-]
     ix    iy  index   (input) (computed) (relative)
  --------------------------------------------------
     1    35     29       1.37       0.94       0.32
     1    34     28       1.37       0.80       0.41
     1    33     27       1.37       0.75       0.45
     1    32     26       1.37       0.73       0.47
     1    31     25       1.37       0.71       0.48
     1    30     24       1.37       0.70       0.49
     1    29     23       1.37       0.70       0.49
     1    28     22       1.37       0.69       0.50
     1    27     21       1.37       0.68       0.50
     1    26     20       1.37       0.68       0.50
     1    25     19       1.37       0.68       0.51
     1    24     18       1.37       0.67       0.51
     1    23     17       1.37       0.67       0.51
     1    22     16       1.37       0.67       0.51
     1    21     15       1.37       0.67       0.51
     1    20     14       1.37       0.67       0.51
     1    19     13       1.37       0.67       0.51
     1    18     12       1.37       0.67       0.51
     1    17     11       1.37       0.67       0.51
     1    16     10       1.37       0.67       0.51
     1    15      9       1.37       0.66       0.52
     1    14      8       1.37       0.66       0.52
     1    13      7       1.37       0.65       0.53
     1    12      6       1.37       0.64       0.54
     1    11      5       1.37       0.62       0.55
     1    10      4       1.37       0.61       0.56
     1     9      3       1.37       0.63       0.54
     1     8      2       1.37       0.82       0.40

 Time of computation ->  20251123.201500      in sec:      72900.
 not possible to compute, first iteration

  ** WARNING : Differences in wave height at the boundary
 Relative difference between input and computation >=   0.10
                         Hs[m]      Hs[m]      Hs[-]
     ix    iy  index   (input) (computed) (relative)
  --------------------------------------------------
     1    35     29       1.38       0.95       0.32
     1    34     28       1.38       0.81       0.41
     1    33     27       1.38       0.76       0.45
     1    32     26       1.38       0.74       0.47
     1    31     25       1.38       0.73       0.47
     1    30     24       1.38       0.72       0.48
     1    29     23       1.38       0.71       0.49
     1    28     22       1.38       0.70       0.49
     1    27     21       1.38       0.69       0.50
     1    26     20       1.38       0.69       0.50
     1    25     19       1.38       0.69       0.50
     1    24     18       1.38       0.68       0.51
     1    23     17       1.38       0.68       0.51
     1    22     16       1.38       0.68       0.51
     1    21     15       1.38       0.69       0.51
     1    20     14       1.38       0.68       0.51
     1    19     13       1.38       0.68       0.51
     1    18     12       1.38       0.68       0.51
     1    17     11       1.38       0.68       0.51
     1    16     10       1.38       0.68       0.51
     1    15      9       1.38       0.67       0.51
     1    14      8       1.38       0.67       0.52
     1    13      7       1.38       0.65       0.53
     1    12      6       1.38       0.64       0.54
     1    11      5       1.38       0.62       0.55
     1    10      4       1.38       0.61       0.56
     1     9      3       1.38       0.64       0.54
     1     8      2       1.38       0.83       0.40

 Time of computation ->  20251123.203000      in sec:      73800.
 not possible to compute, first iteration

  ** WARNING : Differences in wave height at the boundary
 Relative difference between input and computation >=   0.10
                         Hs[m]      Hs[m]      Hs[-]
     ix    iy  index   (input) (computed) (relative)
  --------------------------------------------------
     1    35     29       1.40       0.96       0.32
     1    34     28       1.40       0.82       0.41
     1    33     27       1.40       0.77       0.45
     1    32     26       1.40       0.75       0.46
     1    31     25       1.40       0.74       0.47
     1    30     24       1.40       0.73       0.48
     1    29     23       1.40       0.72       0.49
     1    28     22       1.40       0.71       0.49
     1    27     21       1.40       0.70       0.50
     1    26     20       1.40       0.70       0.50
     1    25     19       1.40       0.70       0.50
     1    24     18       1.40       0.69       0.51
     1    23     17       1.40       0.69       0.51
     1    22     16       1.40       0.69       0.51
     1    21     15       1.40       0.69       0.50
     1    20     14       1.40       0.69       0.50
     1    19     13       1.40       0.69       0.51
     1    18     12       1.40       0.69       0.51
     1    17     11       1.40       0.69       0.51
     1    16     10       1.40       0.69       0.51
     1    15      9       1.40       0.68       0.51
     1    14      8       1.40       0.67       0.52
     1    13      7       1.40       0.66       0.53
     1    12      6       1.40       0.64       0.54
     1    11      5       1.40       0.62       0.55
     1    10      4       1.40       0.61       0.56
     1     9      3       1.40       0.64       0.54
     1     8      2       1.40       0.84       0.40

 Time of computation ->  20251123.204500      in sec:      74700.
 not possible to compute, first iteration

  ** WARNING : Differences in wave height at the boundary
 Relative difference between input and computation >=   0.10
                         Hs[m]      Hs[m]      Hs[-]
     ix    iy  index   (input) (computed) (relative)
  --------------------------------------------------
     1    35     29       1.41       0.96       0.32
     1    34     28       1.41       0.83       0.41
     1    33     27       1.41       0.78       0.45
     1    32     26       1.41       0.76       0.46
     1    31     25       1.41       0.75       0.47
     1    30     24       1.41       0.74       0.47
     1    29     23       1.41       0.73       0.48
     1    28     22       1.41       0.72       0.49
     1    27     21       1.41       0.71       0.49
     1    26     20       1.41       0.71       0.50
     1    25     19       1.41       0.70       0.50
     1    24     18       1.41       0.69       0.51
     1    23     17       1.41       0.69       0.51
     1    22     16       1.41       0.69       0.51
     1    21     15       1.41       0.70       0.50
     1    20     14       1.41       0.70       0.50
     1    19     13       1.41       0.70       0.50
     1    18     12       1.41       0.70       0.50
     1    17     11       1.41       0.70       0.51
     1    16     10       1.41       0.69       0.51
     1    15      9       1.41       0.69       0.51
     1    14      8       1.41       0.68       0.52
     1    13      7       1.41       0.66       0.53
     1    12      6       1.41       0.64       0.54
     1    11      5       1.41       0.62       0.56
     1    10      4       1.41       0.61       0.57
     1     9      3       1.41       0.64       0.54
     1     8      2       1.41       0.85       0.40

 Time of computation ->  20251123.210000      in sec:      75600.
 not possible to compute, first iteration

  ** WARNING : Differences in wave height at the boundary
 Relative difference between input and computation >=   0.10
                         Hs[m]      Hs[m]      Hs[-]
     ix    iy  index   (input) (computed) (relative)
  --------------------------------------------------
     1    35     29       1.41       0.97       0.32
     1    34     28       1.41       0.83       0.41
     1    33     27       1.41       0.78       0.45
     1    32     26       1.41       0.76       0.46
     1    31     25       1.41       0.75       0.47
     1    30     24       1.41       0.74       0.47
     1    29     23       1.41       0.73       0.48
     1    28     22       1.41       0.72       0.49
     1    27     21       1.41       0.71       0.50
     1    26     20       1.41       0.71       0.50
     1    25     19       1.41       0.70       0.50
     1    24     18       1.41       0.69       0.51
     1    23     17       1.41       0.69       0.51
     1    22     16       1.41       0.69       0.51
     1    21     15       1.41       0.70       0.50
     1    20     14       1.41       0.70       0.50
     1    19     13       1.41       0.70       0.51
     1    18     12       1.41       0.70       0.51
     1    17     11       1.41       0.70       0.51
     1    16     10       1.41       0.69       0.51
     1    15      9       1.41       0.68       0.51
     1    14      8       1.41       0.67       0.52
     1    13      7       1.41       0.66       0.53
     1    12      6       1.41       0.64       0.55
     1    11      5       1.41       0.62       0.56
     1    10      4       1.41       0.60       0.58
     1     9      3       1.41       0.64       0.55
     1     8      2       1.41       0.85       0.40

 Time of computation ->  20251123.211500      in sec:      76500.
 Boundary data type TPAR processed, time:       86400.
 Boundary data type TPAR processed, time:       86400.
 not possible to compute, first iteration

  ** WARNING : Differences in wave height at the boundary
 Relative difference between input and computation >=   0.10
                         Hs[m]      Hs[m]      Hs[-]
     ix    iy  index   (input) (computed) (relative)
  --------------------------------------------------
     1    35     29       1.42       0.99       0.30
     1    34     28       1.42       0.85       0.40
     1    33     27       1.42       0.80       0.43
     1    32     26       1.42       0.79       0.45
     1    31     25       1.42       0.78       0.45
     1    30     24       1.42       0.77       0.46
     1    29     23       1.42       0.75       0.47
     1    28     22       1.42       0.74       0.48
     1    27     21       1.42       0.73       0.48
     1    26     20       1.42       0.73       0.49
     1    25     19       1.42       0.72       0.49
     1    24     18       1.42       0.71       0.50
     1    23     17       1.42       0.71       0.50
     1    22     16       1.42       0.71       0.50
     1    21     15       1.42       0.72       0.49
     1    20     14       1.42       0.72       0.49
     1    19     13       1.42       0.72       0.50
     1    18     12       1.42       0.72       0.50
     1    17     11       1.42       0.72       0.50
     1    16     10       1.42       0.71       0.50
     1    15      9       1.42       0.70       0.50
     1    14      8       1.42       0.69       0.51
     1    13      7       1.42       0.68       0.52
     1    12      6       1.42       0.66       0.54
     1    11      5       1.42       0.63       0.55
     1    10      4       1.42       0.61       0.57
     1     9      3       1.42       0.65       0.54
     1     8      2       1.42       0.85       0.40

 Time of computation ->  20251123.213000      in sec:      77400.
 not possible to compute, first iteration

  ** WARNING : Differences in wave height at the boundary
 Relative difference between input and computation >=   0.10
                         Hs[m]      Hs[m]      Hs[-]
     ix    iy  index   (input) (computed) (relative)
  --------------------------------------------------
     1    35     29       1.43       1.01       0.29
     1    34     28       1.43       0.88       0.39
     1    33     27       1.43       0.83       0.42
     1    32     26       1.43       0.81       0.43
     1    31     25       1.43       0.80       0.44
     1    30     24       1.43       0.79       0.45
     1    29     23       1.43       0.77       0.46
     1    28     22       1.43       0.76       0.47
     1    27     21       1.43       0.75       0.47
     1    26     20       1.43       0.75       0.48
     1    25     19       1.43       0.74       0.48
     1    24     18       1.43       0.73       0.49
     1    23     17       1.43       0.73       0.49
     1    22     16       1.43       0.73       0.49
     1    21     15       1.43       0.74       0.48
     1    20     14       1.43       0.74       0.48
     1    19     13       1.43       0.74       0.49
     1    18     12       1.43       0.73       0.49
     1    17     11       1.43       0.73       0.49
     1    16     10       1.43       0.73       0.49
     1    15      9       1.43       0.72       0.49
     1    14      8       1.43       0.71       0.50
     1    13      7       1.43       0.70       0.51
     1    12      6       1.43       0.67       0.53
     1    11      5       1.43       0.65       0.54
     1    10      4       1.43       0.63       0.56
     1     9      3       1.43       0.66       0.54
     1     8      2       1.43       0.85       0.41

 Time of computation ->  20251123.214500      in sec:      78300.
 not possible to compute, first iteration

  ** WARNING : Differences in wave height at the boundary
 Relative difference between input and computation >=   0.10
                         Hs[m]      Hs[m]      Hs[-]
     ix    iy  index   (input) (computed) (relative)
  --------------------------------------------------
     1    35     29       1.44       1.03       0.28
     1    34     28       1.44       0.90       0.37
     1    33     27       1.44       0.85       0.41
     1    32     26       1.44       0.83       0.42
     1    31     25       1.44       0.82       0.43
     1    30     24       1.44       0.81       0.44
     1    29     23       1.44       0.79       0.45
     1    28     22       1.44       0.78       0.46
     1    27     21       1.44       0.77       0.46
     1    26     20       1.44       0.77       0.47
     1    25     19       1.44       0.76       0.47
     1    24     18       1.44       0.75       0.48
     1    23     17       1.44       0.75       0.48
     1    22     16       1.44       0.75       0.48
     1    21     15       1.44       0.76       0.47
     1    20     14       1.44       0.76       0.47
     1    19     13       1.44       0.75       0.48
     1    18     12       1.44       0.75       0.48
     1    17     11       1.44       0.75       0.48
     1    16     10       1.44       0.75       0.48
     1    15      9       1.44       0.74       0.48
     1    14      8       1.44       0.73       0.49
     1    13      7       1.44       0.71       0.50
     1    12      6       1.44       0.69       0.52
     1    11      5       1.44       0.67       0.53
     1    10      4       1.44       0.65       0.55
     1     9      3       1.44       0.67       0.53
     1     8      2       1.44       0.85       0.41

 Time of computation ->  20251123.220000      in sec:      79200.
 not possible to compute, first iteration

  ** WARNING : Differences in wave height at the boundary
 Relative difference between input and computation >=   0.10
                         Hs[m]      Hs[m]      Hs[-]
     ix    iy  index   (input) (computed) (relative)
  --------------------------------------------------
     1    35     29       1.44       1.05       0.27
     1    34     28       1.44       0.92       0.36
     1    33     27       1.44       0.87       0.40
     1    32     26       1.44       0.85       0.41
     1    31     25       1.44       0.84       0.42
     1    30     24       1.44       0.83       0.43
     1    29     23       1.44       0.81       0.44
     1    28     22       1.44       0.80       0.45
     1    27     21       1.44       0.79       0.45
     1    26     20       1.44       0.79       0.46
     1    25     19       1.44       0.78       0.46
     1    24     18       1.44       0.77       0.47
     1    23     17       1.44       0.76       0.47
     1    22     16       1.44       0.77       0.47
     1    21     15       1.44       0.77       0.46
     1    20     14       1.44       0.77       0.46
     1    19     13       1.44       0.77       0.47
     1    18     12       1.44       0.77       0.47
     1    17     11       1.44       0.77       0.47
     1    16     10       1.44       0.77       0.47
     1    15      9       1.44       0.76       0.47
     1    14      8       1.44       0.75       0.48
     1    13      7       1.44       0.73       0.49
     1    12      6       1.44       0.71       0.51
     1    11      5       1.44       0.69       0.52
     1    10      4       1.44       0.66       0.54
     1     9      3       1.44       0.69       0.52
     1     8      2       1.44       0.85       0.41

 Time of computation ->  20251123.221500      in sec:      80100.
 not possible to compute, first iteration

  ** WARNING : Differences in wave height at the boundary
 Relative difference between input and computation >=   0.10
                         Hs[m]      Hs[m]      Hs[-]
     ix    iy  index   (input) (computed) (relative)
  --------------------------------------------------
     1    35     29       1.45       1.07       0.26
     1    34     28       1.45       0.94       0.35
     1    33     27       1.45       0.89       0.39
     1    32     26       1.45       0.87       0.40
     1    31     25       1.45       0.86       0.41
     1    30     24       1.45       0.84       0.42
     1    29     23       1.45       0.83       0.43
     1    28     22       1.45       0.81       0.44
     1    27     21       1.45       0.81       0.44
     1    26     20       1.45       0.80       0.45
     1    25     19       1.45       0.80       0.45
     1    24     18       1.45       0.79       0.46
     1    23     17       1.45       0.78       0.46
     1    22     16       1.45       0.79       0.46
     1    21     15       1.45       0.79       0.45
     1    20     14       1.45       0.79       0.45
     1    19     13       1.45       0.79       0.46
     1    18     12       1.45       0.79       0.46
     1    17     11       1.45       0.79       0.46
     1    16     10       1.45       0.78       0.46
     1    15      9       1.45       0.78       0.47
     1    14      8       1.45       0.77       0.47
     1    13      7       1.45       0.75       0.48
     1    12      6       1.45       0.73       0.50
     1    11      5       1.45       0.71       0.51
     1    10      4       1.45       0.68       0.53
     1     9      3       1.45       0.70       0.52
     1     8      2       1.45       0.85       0.41

 Time of computation ->  20251123.223000      in sec:      81000.
 not possible to compute, first iteration

  ** WARNING : Differences in wave height at the boundary
 Relative difference between input and computation >=   0.10
                         Hs[m]      Hs[m]      Hs[-]
     ix    iy  index   (input) (computed) (relative)
  --------------------------------------------------
     1    35     29       1.46       1.09       0.25
     1    34     28       1.46       0.96       0.34
     1    33     27       1.46       0.90       0.38
     1    32     26       1.46       0.89       0.39
     1    31     25       1.46       0.88       0.40
     1    30     24       1.46       0.86       0.41
     1    29     23       1.46       0.85       0.42
     1    28     22       1.46       0.83       0.43
     1    27     21       1.46       0.82       0.43
     1    26     20       1.46       0.82       0.44
     1    25     19       1.46       0.81       0.44
     1    24     18       1.46       0.81       0.45
     1    23     17       1.46       0.80       0.45
     1    22     16       1.46       0.80       0.45
     1    21     15       1.46       0.81       0.45
     1    20     14       1.46       0.81       0.45
     1    19     13       1.46       0.81       0.45
     1    18     12       1.46       0.81       0.45
     1    17     11       1.46       0.80       0.45
     1    16     10       1.46       0.80       0.45
     1    15      9       1.46       0.79       0.46
     1    14      8       1.46       0.78       0.46
     1    13      7       1.46       0.77       0.47
     1    12      6       1.46       0.75       0.49
     1    11      5       1.46       0.73       0.50
     1    10      4       1.46       0.70       0.52
     1     9      3       1.46       0.72       0.51
     1     8      2       1.46       0.86       0.41

 Time of computation ->  20251123.224500      in sec:      81900.
 not possible to compute, first iteration

  ** WARNING : Differences in wave height at the boundary
 Relative difference between input and computation >=   0.10
                         Hs[m]      Hs[m]      Hs[-]
     ix    iy  index   (input) (computed) (relative)
  --------------------------------------------------
     1    35     29       1.47       1.11       0.24
     1    34     28       1.47       0.98       0.33
     1    33     27       1.47       0.92       0.37
     1    32     26       1.47       0.90       0.38
     1    31     25       1.47       0.89       0.39
     1    30     24       1.47       0.88       0.40
     1    29     23       1.47       0.86       0.41
     1    28     22       1.47       0.85       0.42
     1    27     21       1.47       0.84       0.43
     1    26     20       1.47       0.84       0.43
     1    25     19       1.47       0.83       0.43
     1    24     18       1.47       0.82       0.44
     1    23     17       1.47       0.82       0.44
     1    22     16       1.47       0.82       0.44
     1    21     15       1.47       0.83       0.44
     1    20     14       1.47       0.83       0.44
     1    19     13       1.47       0.82       0.44
     1    18     12       1.47       0.82       0.44
     1    17     11       1.47       0.82       0.44
     1    16     10       1.47       0.82       0.44
     1    15      9       1.47       0.81       0.45
     1    14      8       1.47       0.80       0.45
     1    13      7       1.47       0.79       0.46
     1    12      6       1.47       0.77       0.48
     1    11      5       1.47       0.75       0.49
     1    10      4       1.47       0.72       0.51
     1     9      3       1.47       0.74       0.50
     1     8      2       1.47       0.86       0.41

 Time of computation ->  20251123.230000      in sec:      82800.
 not possible to compute, first iteration

  ** WARNING : Differences in wave height at the boundary
 Relative difference between input and computation >=   0.10
                         Hs[m]      Hs[m]      Hs[-]
     ix    iy  index   (input) (computed) (relative)
  --------------------------------------------------
     1    35     29       1.48       1.13       0.24
     1    34     28       1.48       1.00       0.33
     1    33     27       1.48       0.94       0.36
     1    32     26       1.48       0.92       0.38
     1    31     25       1.48       0.91       0.38
     1    30     24       1.48       0.89       0.39
     1    29     23       1.48       0.88       0.40
     1    28     22       1.48       0.87       0.41
     1    27     21       1.48       0.86       0.42
     1    26     20       1.48       0.86       0.42
     1    25     19       1.48       0.85       0.42
     1    24     18       1.48       0.84       0.43
     1    23     17       1.48       0.84       0.43
     1    22     16       1.48       0.84       0.43
     1    21     15       1.48       0.84       0.43
     1    20     14       1.48       0.84       0.43
     1    19     13       1.48       0.84       0.43
     1    18     12       1.48       0.84       0.43
     1    17     11       1.48       0.84       0.43
     1    16     10       1.48       0.84       0.43
     1    15      9       1.48       0.83       0.44
     1    14      8       1.48       0.82       0.44
     1    13      7       1.48       0.81       0.45
     1    12      6       1.48       0.79       0.47
     1    11      5       1.48       0.77       0.48
     1    10      4       1.48       0.74       0.50
     1     9      3       1.48       0.75       0.49
     1     8      2       1.48       0.86       0.41

 Time of computation ->  20251123.231500      in sec:      83700.
 not possible to compute, first iteration

  ** WARNING : Differences in wave height at the boundary
 Relative difference between input and computation >=   0.10
                         Hs[m]      Hs[m]      Hs[-]
     ix    iy  index   (input) (computed) (relative)
  --------------------------------------------------
     1    35     29       1.48       1.15       0.23
     1    34     28       1.48       1.01       0.32
     1    33     27       1.48       0.96       0.35
     1    32     26       1.48       0.94       0.37
     1    31     25       1.48       0.92       0.38
     1    30     24       1.48       0.91       0.39
     1    29     23       1.48       0.89       0.40
     1    28     22       1.48       0.88       0.40
     1    27     21       1.48       0.88       0.41
     1    26     20       1.48       0.87       0.41
     1    25     19       1.48       0.87       0.42
     1    24     18       1.48       0.86       0.42
     1    23     17       1.48       0.85       0.42
     1    22     16       1.48       0.86       0.42
     1    21     15       1.48       0.86       0.42
     1    20     14       1.48       0.86       0.42
     1    19     13       1.48       0.86       0.42
     1    18     12       1.48       0.86       0.42
     1    17     11       1.48       0.86       0.42
     1    16     10       1.48       0.86       0.42
     1    15      9       1.48       0.85       0.43
     1    14      8       1.48       0.84       0.43
     1    13      7       1.48       0.83       0.44
     1    12      6       1.48       0.81       0.46
     1    11      5       1.48       0.79       0.47
     1    10      4       1.48       0.76       0.49
     1     9      3       1.48       0.77       0.48
     1     8      2       1.48       0.87       0.41

 Time of computation ->  20251123.233000      in sec:      84600.
 not possible to compute, first iteration

  ** WARNING : Differences in wave height at the boundary
 Relative difference between input and computation >=   0.10
                         Hs[m]      Hs[m]      Hs[-]
     ix    iy  index   (input) (computed) (relative)
  --------------------------------------------------
     1    35     29       1.49       1.16       0.22
     1    34     28       1.49       1.03       0.31
     1    33     27       1.49       0.98       0.35
     1    32     26       1.49       0.95       0.36
     1    31     25       1.49       0.94       0.37
     1    30     24       1.49       0.93       0.38
     1    29     23       1.49       0.91       0.39
     1    28     22       1.49       0.90       0.40
     1    27     21       1.49       0.89       0.40
     1    26     20       1.49       0.89       0.40
     1    25     19       1.49       0.89       0.41
     1    24     18       1.49       0.88       0.41
     1    23     17       1.49       0.87       0.41
     1    22     16       1.49       0.87       0.41
     1    21     15       1.49       0.88       0.41
     1    20     14       1.49       0.88       0.41
     1    19     13       1.49       0.88       0.41
     1    18     12       1.49       0.88       0.41
     1    17     11       1.49       0.88       0.41
     1    16     10       1.49       0.88       0.41
     1    15      9       1.49       0.87       0.42
     1    14      8       1.49       0.86       0.42
     1    13      7       1.49       0.85       0.43
     1    12      6       1.49       0.83       0.44
     1    11      5       1.49       0.81       0.46
     1    10      4       1.49       0.78       0.47
     1     9      3       1.49       0.80       0.47
     1     8      2       1.49       0.88       0.41

 Time of computation ->  20251123.234500      in sec:      85500.
 not possible to compute, first iteration

  ** WARNING : Differences in wave height at the boundary
 Relative difference between input and computation >=   0.10
                         Hs[m]      Hs[m]      Hs[-]
     ix    iy  index   (input) (computed) (relative)
  --------------------------------------------------
     1    35     29       1.49       1.18       0.21
     1    34     28       1.49       1.05       0.30
     1    33     27       1.49       0.99       0.34
     1    32     26       1.49       0.97       0.35
     1    31     25       1.49       0.96       0.36
     1    30     24       1.49       0.94       0.37
     1    29     23       1.49       0.93       0.38
     1    28     22       1.49       0.92       0.39
     1    27     21       1.49       0.91       0.39
     1    26     20       1.49       0.91       0.39
     1    25     19       1.49       0.90       0.40
     1    24     18       1.49       0.89       0.40
     1    23     17       1.49       0.89       0.40
     1    22     16       1.49       0.89       0.40
     1    21     15       1.49       0.90       0.40
     1    20     14       1.49       0.90       0.40
     1    19     13       1.49       0.90       0.40
     1    18     12       1.49       0.90       0.40
     1    17     11       1.49       0.90       0.40
     1    16     10       1.49       0.89       0.40
     1    15      9       1.49       0.89       0.41
     1    14      8       1.49       0.88       0.41
     1    13      7       1.49       0.86       0.42
     1    12      6       1.49       0.85       0.43
     1    11      5       1.49       0.83       0.45
     1    10      4       1.49       0.80       0.46
     1     9      3       1.49       0.81       0.46
     1     8      2       1.49       0.88       0.41

 Time of computation ->  20251124.000000      in sec:      86400.
 not possible to compute, first iteration

  ** WARNING : Differences in wave height at the boundary
 Relative difference between input and computation >=   0.10
                         Hs[m]      Hs[m]      Hs[-]
     ix    iy  index   (input) (computed) (relative)
  --------------------------------------------------
     1    35     29       1.49       1.19       0.20
     1    34     28       1.49       1.06       0.29
     1    33     27       1.49       1.00       0.33
     1    32     26       1.49       0.98       0.34
     1    31     25       1.49       0.97       0.35
     1    30     24       1.49       0.95       0.36
     1    29     23       1.49       0.94       0.37
     1    28     22       1.49       0.93       0.38
     1    27     21       1.49       0.92       0.38
     1    26     20       1.49       0.92       0.39
     1    25     19       1.49       0.91       0.39
     1    24     18       1.49       0.91       0.39
     1    23     17       1.49       0.90       0.40
     1    22     16       1.49       0.90       0.40
     1    21     15       1.49       0.91       0.39
     1    20     14       1.49       0.91       0.39
     1    19     13       1.49       0.91       0.39
     1    18     12       1.49       0.91       0.39
     1    17     11       1.49       0.91       0.39
     1    16     10       1.49       0.91       0.39
     1    15      9       1.49       0.90       0.40
     1    14      8       1.49       0.89       0.40
     1    13      7       1.49       0.88       0.41
     1    12      6       1.49       0.86       0.42
     1    11      5       1.49       0.84       0.44
     1    10      4       1.49       0.81       0.46
     1     9      3       1.49       0.82       0.45
     1     8      2       1.49       0.87       0.42

 Time of computation ->  20251124.001500      in sec:      87300.
 Boundary data type TPAR processed, time:       97200.
 Boundary data type TPAR processed, time:       97200.
 not possible to compute, first iteration

  ** WARNING : Differences in wave height at the boundary
 Relative difference between input and computation >=   0.10
                         Hs[m]      Hs[m]      Hs[-]
     ix    iy  index   (input) (computed) (relative)
  --------------------------------------------------
     1    35     29       1.49       1.12       0.25
     1    34     28       1.49       0.98       0.34
     1    33     27       1.49       0.92       0.38
     1    32     26       1.49       0.90       0.40
     1    31     25       1.49       0.88       0.41
     1    30     24       1.49       0.87       0.42
     1    29     23       1.49       0.86       0.42
     1    28     22       1.49       0.84       0.43
     1    27     21       1.49       0.84       0.44
     1    26     20       1.49       0.84       0.44
     1    25     19       1.49       0.83       0.44
     1    24     18       1.49       0.82       0.45
     1    23     17       1.49       0.82       0.45
     1    22     16       1.49       0.82       0.45
     1    21     15       1.49       0.83       0.44
     1    20     14       1.49       0.83       0.44
     1    19     13       1.49       0.83       0.44
     1    18     12       1.49       0.83       0.44
     1    17     11       1.49       0.83       0.44
     1    16     10       1.49       0.83       0.45
     1    15      9       1.49       0.82       0.45
     1    14      8       1.49       0.81       0.46
     1    13      7       1.49       0.80       0.47
     1    12      6       1.49       0.78       0.48
     1    11      5       1.49       0.75       0.49
     1    10      4       1.49       0.73       0.51
     1     9      3       1.49       0.74       0.50
     1     8      2       1.49       0.85       0.43

 Time of computation ->  20251124.003000      in sec:      88200.
 not possible to compute, first iteration

  ** WARNING : Differences in wave height at the boundary
 Relative difference between input and computation >=   0.10
                         Hs[m]      Hs[m]      Hs[-]
     ix    iy  index   (input) (computed) (relative)
  --------------------------------------------------
     1    35     29       1.49       1.06       0.29
     1    34     28       1.49       0.92       0.38
     1    33     27       1.49       0.86       0.42
     1    32     26       1.49       0.84       0.44
     1    31     25       1.49       0.83       0.44
     1    30     24       1.49       0.82       0.45
     1    29     23       1.49       0.80       0.46
     1    28     22       1.49       0.79       0.47
     1    27     21       1.49       0.79       0.47
     1    26     20       1.49       0.78       0.47
     1    25     19       1.49       0.78       0.48
     1    24     18       1.49       0.77       0.48
     1    23     17       1.49       0.77       0.49
     1    22     16       1.49       0.77       0.48
     1    21     15       1.49       0.78       0.48
     1    20     14       1.49       0.78       0.48
     1    19     13       1.49       0.78       0.48
     1    18     12       1.49       0.78       0.48
     1    17     11       1.49       0.78       0.48
     1    16     10       1.49       0.77       0.48
     1    15      9       1.49       0.77       0.48
     1    14      8       1.49       0.76       0.49
     1    13      7       1.49       0.74       0.50
     1    12      6       1.49       0.72       0.52
     1    11      5       1.49       0.70       0.53
     1    10      4       1.49       0.67       0.55
     1     9      3       1.49       0.70       0.53
     1     8      2       1.49       0.87       0.42

 Time of computation ->  20251124.004500      in sec:      89100.
 not possible to compute, first iteration

  ** WARNING : Differences in wave height at the boundary
 Relative difference between input and computation >=   0.10
                         Hs[m]      Hs[m]      Hs[-]
     ix    iy  index   (input) (computed) (relative)
  --------------------------------------------------
     1    35     29       1.49       1.02       0.32
     1    34     28       1.49       0.88       0.41
     1    33     27       1.49       0.82       0.45
     1    32     26       1.49       0.80       0.46
     1    31     25       1.49       0.79       0.47
     1    30     24       1.49       0.78       0.48
     1    29     23       1.49       0.77       0.49
     1    28     22       1.49       0.76       0.49
     1    27     21       1.49       0.75       0.50
     1    26     20       1.49       0.75       0.50
     1    25     19       1.49       0.74       0.50
     1    24     18       1.49       0.74       0.51
     1    23     17       1.49       0.73       0.51
     1    22     16       1.49       0.74       0.51
     1    21     15       1.49       0.74       0.50
     1    20     14       1.49       0.75       0.50
     1    19     13       1.49       0.74       0.50
     1    18     12       1.49       0.74       0.50
     1    17     11       1.49       0.75       0.50
     1    16     10       1.49       0.74       0.50
     1    15      9       1.49       0.74       0.51
     1    14      8       1.49       0.72       0.51
     1    13      7       1.49       0.71       0.53
     1    12      6       1.49       0.69       0.54
     1    11      5       1.49       0.66       0.56
     1    10      4       1.49       0.64       0.57
     1     9      3       1.49       0.69       0.54
     1     8      2       1.49       0.90       0.40

 Time of computation ->  20251124.010000      in sec:      90000.
 not possible to compute, first iteration

  ** WARNING : Differences in wave height at the boundary
 Relative difference between input and computation >=   0.10
                         Hs[m]      Hs[m]      Hs[-]
     ix    iy  index   (input) (computed) (relative)
  --------------------------------------------------
     1    35     29       1.50       0.99       0.34
     1    34     28       1.50       0.85       0.44
     1    33     27       1.50       0.80       0.47
     1    32     26       1.50       0.78       0.48
     1    31     25       1.50       0.77       0.49
     1    30     24       1.50       0.76       0.49
     1    29     23       1.50       0.75       0.50
     1    28     22       1.50       0.74       0.51
     1    27     21       1.50       0.73       0.51
     1    26     20       1.50       0.73       0.51
     1    25     19       1.50       0.72       0.52
     1    24     18       1.50       0.72       0.52
     1    23     17       1.50       0.71       0.53
     1    22     16       1.50       0.72       0.52
     1    21     15       1.50       0.72       0.52
     1    20     14       1.50       0.73       0.52
     1    19     13       1.50       0.72       0.52
     1    18     12       1.50       0.73       0.52
     1    17     11       1.50       0.73       0.52
     1    16     10       1.50       0.72       0.52
     1    15      9       1.50       0.72       0.52
     1    14      8       1.50       0.70       0.53
     1    13      7       1.50       0.69       0.54
     1    12      6       1.50       0.66       0.56
     1    11      5       1.50       0.64       0.57
     1    10      4       1.50       0.63       0.58
     1     9      3       1.50       0.69       0.54
     1     8      2       1.50       0.94       0.38

 Time of computation ->  20251124.011500      in sec:      90900.
 not possible to compute, first iteration

  ** WARNING : Differences in wave height at the boundary
 Relative difference between input and computation >=   0.10
                         Hs[m]      Hs[m]      Hs[-]
     ix    iy  index   (input) (computed) (relative)
  --------------------------------------------------
     1    36     30       1.51       1.35       0.11
     1    35     29       1.51       0.97       0.36
     1    34     28       1.51       0.83       0.45
     1    33     27       1.51       0.78       0.48
     1    32     26       1.51       0.77       0.49
     1    31     25       1.51       0.76       0.50
     1    30     24       1.51       0.75       0.50
     1    29     23       1.51       0.74       0.51
     1    28     22       1.51       0.73       0.52
     1    27     21       1.51       0.72       0.52
     1    26     20       1.51       0.72       0.52
     1    25     19       1.51       0.71       0.53
     1    24     18       1.51       0.70       0.53
     1    23     17       1.51       0.70       0.54
     1    22     16       1.51       0.71       0.53
     1    21     15       1.51       0.71       0.53
     1    20     14       1.51       0.72       0.53
     1    19     13       1.51       0.71       0.53
     1    18     12       1.51       0.71       0.53
     1    17     11       1.51       0.72       0.53
     1    16     10       1.51       0.71       0.53
     1    15      9       1.51       0.70       0.53
     1    14      8       1.51       0.69       0.54
     1    13      7       1.51       0.67       0.55
     1    12      6       1.51       0.65       0.57
     1    11      5       1.51       0.63       0.58
     1    10      4       1.51       0.62       0.59
     1     9      3       1.51       0.70       0.54
     1     8      2       1.51       0.97       0.36

 Time of computation ->  20251124.013000      in sec:      91800.
 not possible to compute, first iteration

  ** WARNING : Differences in wave height at the boundary
 Relative difference between input and computation >=   0.10
                         Hs[m]      Hs[m]      Hs[-]
     ix    iy  index   (input) (computed) (relative)
  --------------------------------------------------
     1    36     30       1.52       1.34       0.12
     1    35     29       1.52       0.96       0.37
     1    34     28       1.52       0.82       0.46
     1    33     27       1.52       0.78       0.49
     1    32     26       1.52       0.77       0.50
     1    31     25       1.52       0.76       0.50
     1    30     24       1.52       0.75       0.51
     1    29     23       1.52       0.74       0.52
     1    28     22       1.52       0.73       0.52
     1    27     21       1.52       0.72       0.53
     1    26     20       1.52       0.72       0.53
     1    25     19       1.52       0.71       0.53
     1    24     18       1.52       0.70       0.54
     1    23     17       1.52       0.70       0.54
     1    22     16       1.52       0.70       0.54
     1    21     15       1.52       0.71       0.53
     1    20     14       1.52       0.71       0.53
     1    19     13       1.52       0.71       0.54
     1    18     12       1.52       0.71       0.53
     1    17     11       1.52       0.71       0.53
     1    16     10       1.52       0.71       0.54
     1    15      9       1.52       0.70       0.54
     1    14      8       1.52       0.68       0.55
     1    13      7       1.52       0.67       0.56
     1    12      6       1.52       0.64       0.58
     1    11      5       1.52       0.62       0.59
     1    10      4       1.52       0.62       0.59
     1     9      3       1.52       0.71       0.53
     1     8      2       1.52       1.01       0.34

 Time of computation ->  20251124.014500      in sec:      92700.
 not possible to compute, first iteration

  ** WARNING : Differences in wave height at the boundary
 Relative difference between input and computation >=   0.10
                         Hs[m]      Hs[m]      Hs[-]
     ix    iy  index   (input) (computed) (relative)
  --------------------------------------------------
     1    36     30       1.53       1.34       0.13
     1    35     29       1.53       0.95       0.38
     1    34     28       1.53       0.82       0.46
     1    33     27       1.53       0.78       0.49
     1    32     26       1.53       0.77       0.50
     1    31     25       1.53       0.77       0.50
     1    30     24       1.53       0.76       0.51
     1    29     23       1.53       0.74       0.52
     1    28     22       1.53       0.73       0.53
     1    27     21       1.53       0.72       0.53
     1    26     20       1.53       0.72       0.53
     1    25     19       1.53       0.71       0.54
     1    24     18       1.53       0.70       0.54
     1    23     17       1.53       0.69       0.55
     1    22     16       1.53       0.70       0.54
     1    21     15       1.53       0.71       0.54
     1    20     14       1.53       0.71       0.54
     1    19     13       1.53       0.70       0.54
     1    18     12       1.53       0.71       0.54
     1    17     11       1.53       0.71       0.54
     1    16     10       1.53       0.70       0.54
     1    15      9       1.53       0.69       0.55
     1    14      8       1.53       0.68       0.56
     1    13      7       1.53       0.66       0.57
     1    12      6       1.53       0.63       0.59
     1    11      5       1.53       0.61       0.60
     1    10      4       1.53       0.62       0.60
     1     9      3       1.53       0.72       0.53
     1     8      2       1.53       1.04       0.32

 Time of computation ->  20251124.020000      in sec:      93600.
 not possible to compute, first iteration

  ** WARNING : Differences in wave height at the boundary
 Relative difference between input and computation >=   0.10
                         Hs[m]      Hs[m]      Hs[-]
     ix    iy  index   (input) (computed) (relative)
  --------------------------------------------------
     1    36     30       1.55       1.34       0.14
     1    35     29       1.55       0.95       0.38
     1    34     28       1.55       0.82       0.47
     1    33     27       1.55       0.78       0.49
     1    32     26       1.55       0.78       0.50
     1    31     25       1.55       0.78       0.50
     1    30     24       1.55       0.76       0.51
     1    29     23       1.55       0.75       0.52
     1    28     22       1.55       0.73       0.53
     1    27     21       1.55       0.72       0.53
     1    26     20       1.55       0.72       0.53
     1    25     19       1.55       0.71       0.54
     1    24     18       1.55       0.70       0.55
     1    23     17       1.55       0.69       0.55
     1    22     16       1.55       0.70       0.55
     1    21     15       1.55       0.71       0.54
     1    20     14       1.55       0.71       0.54
     1    19     13       1.55       0.70       0.55
     1    18     12       1.55       0.70       0.54
     1    17     11       1.55       0.70       0.54
     1    16     10       1.55       0.70       0.55
     1    15      9       1.55       0.69       0.55
     1    14      8       1.55       0.68       0.56
     1    13      7       1.55       0.66       0.58
     1    12      6       1.55       0.63       0.59
     1    11      5       1.55       0.61       0.60
     1    10      4       1.55       0.62       0.60
     1     9      3       1.55       0.74       0.52
     1     8      2       1.55       1.07       0.31

 Time of computation ->  20251124.021500      in sec:      94500.
 not possible to compute, first iteration

  ** WARNING : Differences in wave height at the boundary
 Relative difference between input and computation >=   0.10
                         Hs[m]      Hs[m]      Hs[-]
     ix    iy  index   (input) (computed) (relative)
  --------------------------------------------------
     1    36     30       1.56       1.34       0.14
     1    35     29       1.56       0.96       0.39
     1    34     28       1.56       0.83       0.47
     1    33     27       1.56       0.79       0.49
     1    32     26       1.56       0.79       0.50
     1    31     25       1.56       0.78       0.50
     1    30     24       1.56       0.77       0.51
     1    29     23       1.56       0.75       0.52
     1    28     22       1.56       0.74       0.53
     1    27     21       1.56       0.73       0.53
     1    26     20       1.56       0.72       0.54
     1    25     19       1.56       0.71       0.54
     1    24     18       1.56       0.70       0.55
     1    23     17       1.56       0.69       0.55
     1    22     16       1.56       0.70       0.55
     1    21     15       1.56       0.71       0.55
     1    20     14       1.56       0.71       0.55
     1    19     13       1.56       0.70       0.55
     1    18     12       1.56       0.70       0.55
     1    17     11       1.56       0.70       0.55
     1    16     10       1.56       0.70       0.55
     1    15      9       1.56       0.69       0.56
     1    14      8       1.56       0.67       0.57
     1    13      7       1.56       0.65       0.58
     1    12      6       1.56       0.63       0.60
     1    11      5       1.56       0.61       0.61
     1    10      4       1.56       0.63       0.60
     1     9      3       1.56       0.76       0.52
     1     8      2       1.56       1.10       0.30

 Time of computation ->  20251124.023000      in sec:      95400.
 not possible to compute, first iteration

  ** WARNING : Differences in wave height at the boundary
 Relative difference between input and computation >=   0.10
                         Hs[m]      Hs[m]      Hs[-]
     ix    iy  index   (input) (computed) (relative)
  --------------------------------------------------
     1    36     30       1.57       1.34       0.15
     1    35     29       1.57       0.96       0.39
     1    34     28       1.57       0.83       0.47
     1    33     27       1.57       0.79       0.49
     1    32     26       1.57       0.79       0.50
     1    31     25       1.57       0.79       0.50
     1    30     24       1.57       0.78       0.51
     1    29     23       1.57       0.76       0.52
     1    28     22       1.57       0.74       0.53
     1    27     21       1.57       0.73       0.54
     1    26     20       1.57       0.72       0.54
     1    25     19       1.57       0.71       0.55
     1    24     18       1.57       0.70       0.55
     1    23     17       1.57       0.69       0.56
     1    22     16       1.57       0.70       0.56
     1    21     15       1.57       0.70       0.55
     1    20     14       1.57       0.70       0.55
     1    19     13       1.57       0.70       0.56
     1    18     12       1.57       0.70       0.56
     1    17     11       1.57       0.70       0.56
     1    16     10       1.57       0.69       0.56
     1    15      9       1.57       0.68       0.57
     1    14      8       1.57       0.67       0.58
     1    13      7       1.57       0.65       0.59
     1    12      6       1.57       0.62       0.60
     1    11      5       1.57       0.61       0.61
     1    10      4       1.57       0.63       0.60
     1     9      3       1.57       0.77       0.51
     1     8      2       1.57       1.12       0.29

 Time of computation ->  20251124.024500      in sec:      96300.
 not possible to compute, first iteration

  ** WARNING : Differences in wave height at the boundary
 Relative difference between input and computation >=   0.10
                         Hs[m]      Hs[m]      Hs[-]
     ix    iy  index   (input) (computed) (relative)
  --------------------------------------------------
     1    36     30       1.58       1.34       0.15
     1    35     29       1.58       0.96       0.40
     1    34     28       1.58       0.83       0.47
     1    33     27       1.58       0.80       0.50
     1    32     26       1.58       0.79       0.50
     1    31     25       1.58       0.79       0.50
     1    30     24       1.58       0.78       0.51
     1    29     23       1.58       0.76       0.52
     1    28     22       1.58       0.74       0.53
     1    27     21       1.58       0.73       0.54
     1    26     20       1.58       0.72       0.54
     1    25     19       1.58       0.71       0.55
     1    24     18       1.58       0.70       0.56
     1    23     17       1.58       0.69       0.56
     1    22     16       1.58       0.69       0.56
     1    21     15       1.58       0.70       0.56
     1    20     14       1.58       0.70       0.56
     1    19     13       1.58       0.69       0.56
     1    18     12       1.58       0.69       0.56
     1    17     11       1.58       0.69       0.56
     1    16     10       1.58       0.69       0.57
     1    15      9       1.58       0.68       0.57
     1    14      8       1.58       0.66       0.58
     1    13      7       1.58       0.64       0.60
     1    12      6       1.58       0.61       0.61
     1    11      5       1.58       0.60       0.62
     1    10      4       1.58       0.63       0.60
     1     9      3       1.58       0.78       0.51
     1     8      2       1.58       1.14       0.28

 Time of computation ->  20251124.030000      in sec:      97200.
 not possible to compute, first iteration

  ** WARNING : Differences in wave height at the boundary
 Relative difference between input and computation >=   0.10
                         Hs[m]      Hs[m]      Hs[-]
     ix    iy  index   (input) (computed) (relative)
  --------------------------------------------------
     1    36     30       1.59       1.33       0.16
     1    35     29       1.59       0.95       0.40
     1    34     28       1.59       0.83       0.48
     1    33     27       1.59       0.79       0.50
     1    32     26       1.59       0.79       0.50
     1    31     25       1.59       0.79       0.50
     1    30     24       1.59       0.78       0.51
     1    29     23       1.59       0.75       0.53
     1    28     22       1.59       0.73       0.54
     1    27     21       1.59       0.72       0.55
     1    26     20       1.59       0.71       0.55
     1    25     19       1.59       0.70       0.56
     1    24     18       1.59       0.69       0.57
     1    23     17       1.59       0.68       0.57
     1    22     16       1.59       0.68       0.57
     1    21     15       1.59       0.69       0.57
     1    20     14       1.59       0.69       0.57
     1    19     13       1.59       0.68       0.57
     1    18     12       1.59       0.68       0.57
     1    17     11       1.59       0.68       0.57
     1    16     10       1.59       0.67       0.58
     1    15      9       1.59       0.66       0.58
     1    14      8       1.59       0.65       0.59
     1    13      7       1.59       0.62       0.61
     1    12      6       1.59       0.60       0.62
     1    11      5       1.59       0.59       0.63
     1    10      4       1.59       0.62       0.61
     1     9      3       1.59       0.79       0.51
     1     8      2       1.59       1.16       0.27

 Time of computation ->  20251124.031500      in sec:      98100.
 Boundary data type TPAR processed, time:      108000.
 Boundary data type TPAR processed, time:      108000.
 not possible to compute, first iteration

  ** WARNING : Differences in wave height at the boundary
 Relative difference between input and computation >=   0.10
                         Hs[m]      Hs[m]      Hs[-]
     ix    iy  index   (input) (computed) (relative)
  --------------------------------------------------
     1    36     30       1.59       1.36       0.15
     1    35     29       1.59       0.97       0.39
     1    34     28       1.59       0.84       0.47
     1    33     27       1.59       0.80       0.50
     1    32     26       1.59       0.80       0.50
     1    31     25       1.59       0.80       0.50
     1    30     24       1.59       0.79       0.51
     1    29     23       1.59       0.76       0.52
     1    28     22       1.59       0.74       0.53
     1    27     21       1.59       0.73       0.54
     1    26     20       1.59       0.72       0.55
     1    25     19       1.59       0.71       0.55
     1    24     18       1.59       0.70       0.56
     1    23     17       1.59       0.69       0.57
     1    22     16       1.59       0.69       0.57
     1    21     15       1.59       0.69       0.57
     1    20     14       1.59       0.69       0.57
     1    19     13       1.59       0.69       0.57
     1    18     12       1.59       0.69       0.57
     1    17     11       1.59       0.68       0.57
     1    16     10       1.59       0.68       0.58
     1    15      9       1.59       0.67       0.58
     1    14      8       1.59       0.65       0.59
     1    13      7       1.59       0.63       0.61
     1    12      6       1.59       0.60       0.62
     1    11      5       1.59       0.59       0.63
     1    10      4       1.59       0.63       0.61
     1     9      3       1.59       0.78       0.51
     1     8      2       1.59       1.15       0.28

 Time of computation ->  20251124.033000      in sec:      99000.
 not possible to compute, first iteration

  ** WARNING : Differences in wave height at the boundary
 Relative difference between input and computation >=   0.10
                         Hs[m]      Hs[m]      Hs[-]
     ix    iy  index   (input) (computed) (relative)
  --------------------------------------------------
     1    36     30       1.60       1.38       0.14
     1    35     29       1.60       0.99       0.38
     1    34     28       1.60       0.86       0.47
     1    33     27       1.60       0.82       0.49
     1    32     26       1.60       0.81       0.49
     1    31     25       1.60       0.81       0.49
     1    30     24       1.60       0.79       0.50
     1    29     23       1.60       0.77       0.52
     1    28     22       1.60       0.75       0.53
     1    27     21       1.60       0.73       0.54
     1    26     20       1.60       0.73       0.55
     1    25     19       1.60       0.72       0.55
     1    24     18       1.60       0.70       0.56
     1    23     17       1.60       0.69       0.57
     1    22     16       1.60       0.69       0.57
     1    21     15       1.60       0.69       0.57
     1    20     14       1.60       0.69       0.57
     1    19     13       1.60       0.69       0.57
     1    18     12       1.60       0.69       0.57
     1    17     11       1.60       0.69       0.57
     1    16     10       1.60       0.68       0.58
     1    15      9       1.60       0.67       0.58
     1    14      8       1.60       0.65       0.59
     1    13      7       1.60       0.63       0.61
     1    12      6       1.60       0.61       0.62
     1    11      5       1.60       0.60       0.63
     1    10      4       1.60       0.63       0.61
     1     9      3       1.60       0.78       0.51
     1     8      2       1.60       1.14       0.29

 Time of computation ->  20251124.034500      in sec:      99900.
 not possible to compute, first iteration

  ** WARNING : Differences in wave height at the boundary
 Relative difference between input and computation >=   0.10
                         Hs[m]      Hs[m]      Hs[-]
     ix    iy  index   (input) (computed) (relative)
  --------------------------------------------------
     1    36     30       1.61       1.40       0.13
     1    35     29       1.61       1.00       0.38
     1    34     28       1.61       0.87       0.46
     1    33     27       1.61       0.82       0.49
     1    32     26       1.61       0.82       0.49
     1    31     25       1.61       0.82       0.49
     1    30     24       1.61       0.80       0.50
     1    29     23       1.61       0.77       0.52
     1    28     22       1.61       0.75       0.53
     1    27     21       1.61       0.74       0.54
     1    26     20       1.61       0.73       0.55
     1    25     19       1.61       0.72       0.55
     1    24     18       1.61       0.71       0.56
     1    23     17       1.61       0.70       0.57
     1    22     16       1.61       0.70       0.57
     1    21     15       1.61       0.70       0.57
     1    20     14       1.61       0.70       0.57
     1    19     13       1.61       0.69       0.57
     1    18     12       1.61       0.69       0.57
     1    17     11       1.61       0.69       0.57
     1    16     10       1.61       0.68       0.58
     1    15      9       1.61       0.67       0.58
     1    14      8       1.61       0.65       0.59
     1    13      7       1.61       0.63       0.61
     1    12      6       1.61       0.61       0.62
     1    11      5       1.61       0.60       0.63
     1    10      4       1.61       0.63       0.61
     1     9      3       1.61       0.78       0.51
     1     8      2       1.61       1.13       0.30

 Time of computation ->  20251124.040000      in sec:     100800.
 not possible to compute, first iteration

  ** WARNING : Differences in wave height at the boundary
 Relative difference between input and computation >=   0.10
                         Hs[m]      Hs[m]      Hs[-]
     ix    iy  index   (input) (computed) (relative)
  --------------------------------------------------
     1    36     30       1.62       1.42       0.12
     1    35     29       1.62       1.02       0.37
     1    34     28       1.62       0.88       0.46
     1    33     27       1.62       0.83       0.48
     1    32     26       1.62       0.83       0.49
     1    31     25       1.62       0.82       0.49
     1    30     24       1.62       0.80       0.50
     1    29     23       1.62       0.78       0.52
     1    28     22       1.62       0.76       0.53
     1    27     21       1.62       0.74       0.54
     1    26     20       1.62       0.73       0.55
     1    25     19       1.62       0.72       0.55
     1    24     18       1.62       0.71       0.56
     1    23     17       1.62       0.70       0.57
[...]
     1    20     14       1.47       0.50       0.66
     1    19     13       1.47       0.50       0.66
     1    18     12       1.47       0.50       0.66
     1    17     11       1.47       0.49       0.67
     1    16     10       1.47       0.48       0.67
     1    15      9       1.47       0.48       0.68
     1    14      8       1.47       0.46       0.68
     1    13      7       1.47       0.46       0.69
     1    12      6       1.47       0.45       0.69
     1    11      5       1.47       0.45       0.69
     1    10      4       1.47       0.49       0.66
     1     9      3       1.47       0.61       0.59
     1     8      2       1.47       0.91       0.38

 Time of computation ->  20251130.154500      in sec:     661500.
 not possible to compute, first iteration

  ** WARNING : Differences in wave height at the boundary
 Relative difference between input and computation >=   0.10
                         Hs[m]      Hs[m]      Hs[-]
     ix    iy  index   (input) (computed) (relative)
  --------------------------------------------------
     1    36     30       1.47       1.30       0.11
     1    35     29       1.47       0.89       0.39
     1    34     28       1.47       0.74       0.50
     1    33     27       1.47       0.67       0.54
     1    32     26       1.47       0.64       0.56
     1    31     25       1.47       0.63       0.57
     1    30     24       1.47       0.60       0.59
     1    29     23       1.47       0.58       0.60
     1    28     22       1.47       0.57       0.62
     1    27     21       1.47       0.55       0.63
     1    26     20       1.47       0.54       0.63
     1    25     19       1.47       0.53       0.64
     1    24     18       1.47       0.52       0.65
     1    23     17       1.47       0.51       0.65
     1    22     16       1.47       0.51       0.65
     1    21     15       1.47       0.51       0.66
     1    20     14       1.47       0.50       0.66
     1    19     13       1.47       0.50       0.66
     1    18     12       1.47       0.50       0.66
     1    17     11       1.47       0.49       0.67
     1    16     10       1.47       0.49       0.67
     1    15      9       1.47       0.48       0.68
     1    14      8       1.47       0.47       0.68
     1    13      7       1.47       0.46       0.69
     1    12      6       1.47       0.45       0.69
     1    11      5       1.47       0.46       0.69
     1    10      4       1.47       0.50       0.66
     1     9      3       1.47       0.61       0.58
     1     8      2       1.47       0.92       0.38

 Time of computation ->  20251130.160000      in sec:     662400.
 not possible to compute, first iteration

  ** WARNING : Differences in wave height at the boundary
 Relative difference between input and computation >=   0.10
                         Hs[m]      Hs[m]      Hs[-]
     ix    iy  index   (input) (computed) (relative)
  --------------------------------------------------
     1    36     30       1.47       1.30       0.12
     1    35     29       1.47       0.89       0.39
     1    34     28       1.47       0.74       0.50
     1    33     27       1.47       0.67       0.54
     1    32     26       1.47       0.65       0.56
     1    31     25       1.47       0.63       0.57
     1    30     24       1.47       0.61       0.59
     1    29     23       1.47       0.58       0.60
     1    28     22       1.47       0.57       0.62
     1    27     21       1.47       0.55       0.62
     1    26     20       1.47       0.54       0.63
     1    25     19       1.47       0.53       0.64
     1    24     18       1.47       0.52       0.65
     1    23     17       1.47       0.52       0.65
     1    22     16       1.47       0.51       0.65
     1    21     15       1.47       0.51       0.66
     1    20     14       1.47       0.50       0.66
     1    19     13       1.47       0.50       0.66
     1    18     12       1.47       0.50       0.66
     1    17     11       1.47       0.49       0.67
     1    16     10       1.47       0.49       0.67
     1    15      9       1.47       0.48       0.68
     1    14      8       1.47       0.47       0.68
     1    13      7       1.47       0.46       0.69
     1    12      6       1.47       0.45       0.69
     1    11      5       1.47       0.46       0.69
     1    10      4       1.47       0.50       0.66
     1     9      3       1.47       0.61       0.58
     1     8      2       1.47       0.92       0.38

 Time of computation ->  20251130.161500      in sec:     663300.
 not possible to compute, first iteration

  ** WARNING : Differences in wave height at the boundary
 Relative difference between input and computation >=   0.10
                         Hs[m]      Hs[m]      Hs[-]
     ix    iy  index   (input) (computed) (relative)
  --------------------------------------------------
     1    36     30       1.48       1.31       0.12
     1    35     29       1.48       0.90       0.39
     1    34     28       1.48       0.74       0.50
     1    33     27       1.48       0.67       0.54
     1    32     26       1.48       0.65       0.56
     1    31     25       1.48       0.63       0.57
     1    30     24       1.48       0.61       0.59
     1    29     23       1.48       0.59       0.60
     1    28     22       1.48       0.57       0.62
     1    27     21       1.48       0.55       0.62
     1    26     20       1.48       0.54       0.63
     1    25     19       1.48       0.53       0.64
     1    24     18       1.48       0.52       0.65
     1    23     17       1.48       0.52       0.65
     1    22     16       1.48       0.51       0.65
     1    21     15       1.48       0.51       0.66
     1    20     14       1.48       0.51       0.66
     1    19     13       1.48       0.50       0.66
     1    18     12       1.48       0.50       0.66
     1    17     11       1.48       0.49       0.67
     1    16     10       1.48       0.49       0.67
     1    15      9       1.48       0.48       0.68
     1    14      8       1.48       0.47       0.68
     1    13      7       1.48       0.46       0.69
     1    12      6       1.48       0.45       0.69
     1    11      5       1.48       0.46       0.69
     1    10      4       1.48       0.50       0.66
     1     9      3       1.48       0.62       0.58
     1     8      2       1.48       0.92       0.38

 Time of computation ->  20251130.163000      in sec:     664200.
 not possible to compute, first iteration

  ** WARNING : Differences in wave height at the boundary
 Relative difference between input and computation >=   0.10
                         Hs[m]      Hs[m]      Hs[-]
     ix    iy  index   (input) (computed) (relative)
  --------------------------------------------------
     1    36     30       1.48       1.31       0.12
     1    35     29       1.48       0.90       0.39
     1    34     28       1.48       0.74       0.50
     1    33     27       1.48       0.67       0.54
     1    32     26       1.48       0.65       0.56
     1    31     25       1.48       0.63       0.57
     1    30     24       1.48       0.61       0.59
     1    29     23       1.48       0.59       0.60
     1    28     22       1.48       0.57       0.62
     1    27     21       1.48       0.56       0.62
     1    26     20       1.48       0.54       0.63
     1    25     19       1.48       0.53       0.64
     1    24     18       1.48       0.52       0.65
     1    23     17       1.48       0.52       0.65
     1    22     16       1.48       0.51       0.65
     1    21     15       1.48       0.51       0.66
     1    20     14       1.48       0.51       0.66
     1    19     13       1.48       0.50       0.66
     1    18     12       1.48       0.50       0.66
     1    17     11       1.48       0.50       0.67
     1    16     10       1.48       0.49       0.67
     1    15      9       1.48       0.48       0.68
     1    14      8       1.48       0.47       0.68
     1    13      7       1.48       0.46       0.69
     1    12      6       1.48       0.45       0.69
     1    11      5       1.48       0.46       0.69
     1    10      4       1.48       0.50       0.66
     1     9      3       1.48       0.62       0.58
     1     8      2       1.48       0.93       0.37

 Time of computation ->  20251130.164500      in sec:     665100.
 not possible to compute, first iteration

  ** WARNING : Differences in wave height at the boundary
 Relative difference between input and computation >=   0.10
                         Hs[m]      Hs[m]      Hs[-]
     ix    iy  index   (input) (computed) (relative)
  --------------------------------------------------
     1    36     30       1.48       1.31       0.12
     1    35     29       1.48       0.90       0.39
     1    34     28       1.48       0.74       0.50
     1    33     27       1.48       0.68       0.54
     1    32     26       1.48       0.65       0.56
     1    31     25       1.48       0.63       0.57
     1    30     24       1.48       0.61       0.59
     1    29     23       1.48       0.59       0.60
     1    28     22       1.48       0.57       0.62
     1    27     21       1.48       0.56       0.62
     1    26     20       1.48       0.55       0.63
     1    25     19       1.48       0.53       0.64
     1    24     18       1.48       0.53       0.65
     1    23     17       1.48       0.52       0.65
     1    22     16       1.48       0.51       0.65
     1    21     15       1.48       0.51       0.66
     1    20     14       1.48       0.51       0.66
     1    19     13       1.48       0.50       0.66
     1    18     12       1.48       0.50       0.66
     1    17     11       1.48       0.50       0.66
     1    16     10       1.48       0.49       0.67
     1    15      9       1.48       0.48       0.68
     1    14      8       1.48       0.47       0.68
     1    13      7       1.48       0.46       0.69
     1    12      6       1.48       0.46       0.69
     1    11      5       1.48       0.46       0.69
     1    10      4       1.48       0.50       0.66
     1     9      3       1.48       0.62       0.58
     1     8      2       1.48       0.93       0.37

 Time of computation ->  20251130.170000      in sec:     666000.
 not possible to compute, first iteration

  ** WARNING : Differences in wave height at the boundary
 Relative difference between input and computation >=   0.10
                         Hs[m]      Hs[m]      Hs[-]
     ix    iy  index   (input) (computed) (relative)
  --------------------------------------------------
     1    36     30       1.49       1.31       0.12
     1    35     29       1.49       0.90       0.39
     1    34     28       1.49       0.74       0.50
     1    33     27       1.49       0.68       0.54
     1    32     26       1.49       0.65       0.56
     1    31     25       1.49       0.63       0.57
     1    30     24       1.49       0.61       0.59
     1    29     23       1.49       0.59       0.60
     1    28     22       1.49       0.57       0.62
     1    27     21       1.49       0.56       0.62
     1    26     20       1.49       0.55       0.63
     1    25     19       1.49       0.54       0.64
     1    24     18       1.49       0.53       0.65
     1    23     17       1.49       0.52       0.65
     1    22     16       1.49       0.52       0.65
     1    21     15       1.49       0.51       0.66
     1    20     14       1.49       0.51       0.66
     1    19     13       1.49       0.51       0.66
     1    18     12       1.49       0.50       0.66
     1    17     11       1.49       0.50       0.66
     1    16     10       1.49       0.49       0.67
     1    15      9       1.49       0.48       0.68
     1    14      8       1.49       0.47       0.68
     1    13      7       1.49       0.46       0.69
     1    12      6       1.49       0.46       0.69
     1    11      5       1.49       0.46       0.69
     1    10      4       1.49       0.50       0.66
     1     9      3       1.49       0.62       0.58
     1     8      2       1.49       0.93       0.37

 Time of computation ->  20251130.171500      in sec:     666900.
 not possible to compute, first iteration

  ** WARNING : Differences in wave height at the boundary
 Relative difference between input and computation >=   0.10
                         Hs[m]      Hs[m]      Hs[-]
     ix    iy  index   (input) (computed) (relative)
  --------------------------------------------------
     1    36     30       1.49       1.31       0.12
     1    35     29       1.49       0.90       0.39
     1    34     28       1.49       0.74       0.50
     1    33     27       1.49       0.68       0.54
     1    32     26       1.49       0.65       0.56
     1    31     25       1.49       0.63       0.57
     1    30     24       1.49       0.61       0.59
     1    29     23       1.49       0.59       0.60
     1    28     22       1.49       0.57       0.61
     1    27     21       1.49       0.56       0.62
     1    26     20       1.49       0.55       0.63
     1    25     19       1.49       0.54       0.64
     1    24     18       1.49       0.53       0.65
     1    23     17       1.49       0.52       0.65
     1    22     16       1.49       0.52       0.65
     1    21     15       1.49       0.51       0.65
     1    20     14       1.49       0.51       0.66
     1    19     13       1.49       0.51       0.66
     1    18     12       1.49       0.50       0.66
     1    17     11       1.49       0.50       0.66
     1    16     10       1.49       0.49       0.67
     1    15      9       1.49       0.48       0.68
     1    14      8       1.49       0.47       0.68
     1    13      7       1.49       0.46       0.69
     1    12      6       1.49       0.46       0.69
     1    11      5       1.49       0.46       0.69
     1    10      4       1.49       0.50       0.66
     1     9      3       1.49       0.62       0.58
     1     8      2       1.49       0.93       0.37

 Time of computation ->  20251130.173000      in sec:     667800.
 not possible to compute, first iteration

  ** WARNING : Differences in wave height at the boundary
 Relative difference between input and computation >=   0.10
                         Hs[m]      Hs[m]      Hs[-]
     ix    iy  index   (input) (computed) (relative)
  --------------------------------------------------
     1    36     30       1.49       1.32       0.12
     1    35     29       1.49       0.90       0.39
     1    34     28       1.49       0.74       0.50
     1    33     27       1.49       0.68       0.54
     1    32     26       1.49       0.65       0.56
     1    31     25       1.49       0.63       0.57
     1    30     24       1.49       0.61       0.59
     1    29     23       1.49       0.59       0.60
     1    28     22       1.49       0.57       0.61
     1    27     21       1.49       0.56       0.62
     1    26     20       1.49       0.55       0.63
     1    25     19       1.49       0.54       0.64
     1    24     18       1.49       0.53       0.65
     1    23     17       1.49       0.52       0.65
     1    22     16       1.49       0.52       0.65
     1    21     15       1.49       0.51       0.65
     1    20     14       1.49       0.51       0.66
     1    19     13       1.49       0.51       0.66
     1    18     12       1.49       0.50       0.66
     1    17     11       1.49       0.50       0.66
     1    16     10       1.49       0.49       0.67
     1    15      9       1.49       0.48       0.68
     1    14      8       1.49       0.47       0.68
     1    13      7       1.49       0.46       0.69
     1    12      6       1.49       0.46       0.69
     1    11      5       1.49       0.46       0.69
     1    10      4       1.49       0.50       0.66
     1     9      3       1.49       0.62       0.58
     1     8      2       1.49       0.94       0.37

 Time of computation ->  20251130.174500      in sec:     668700.
 not possible to compute, first iteration

  ** WARNING : Differences in wave height at the boundary
 Relative difference between input and computation >=   0.10
                         Hs[m]      Hs[m]      Hs[-]
     ix    iy  index   (input) (computed) (relative)
  --------------------------------------------------
     1    36     30       1.49       1.32       0.12
     1    35     29       1.49       0.90       0.40
     1    34     28       1.49       0.74       0.50
     1    33     27       1.49       0.68       0.54
     1    32     26       1.49       0.65       0.56
     1    31     25       1.49       0.64       0.57
     1    30     24       1.49       0.61       0.59
     1    29     23       1.49       0.59       0.60
     1    28     22       1.49       0.58       0.61
     1    27     21       1.49       0.56       0.62
     1    26     20       1.49       0.55       0.63
     1    25     19       1.49       0.54       0.64
     1    24     18       1.49       0.53       0.65
     1    23     17       1.49       0.52       0.65
     1    22     16       1.49       0.52       0.65
     1    21     15       1.49       0.52       0.65
     1    20     14       1.49       0.51       0.66
     1    19     13       1.49       0.51       0.66
     1    18     12       1.49       0.51       0.66
     1    17     11       1.49       0.50       0.66
     1    16     10       1.49       0.49       0.67
     1    15      9       1.49       0.49       0.68
     1    14      8       1.49       0.47       0.68
     1    13      7       1.49       0.46       0.69
     1    12      6       1.49       0.46       0.69
     1    11      5       1.49       0.46       0.69
     1    10      4       1.49       0.50       0.66
     1     9      3       1.49       0.62       0.58
     1     8      2       1.49       0.94       0.37

 Time of computation ->  20251130.180000      in sec:     669600.
 not possible to compute, first iteration

  ** WARNING : Differences in wave height at the boundary
 Relative difference between input and computation >=   0.10
                         Hs[m]      Hs[m]      Hs[-]
     ix    iy  index   (input) (computed) (relative)
  --------------------------------------------------
     1    36     30       1.50       1.32       0.12
     1    35     29       1.50       0.90       0.40
     1    34     28       1.50       0.74       0.50
     1    33     27       1.50       0.68       0.54
     1    32     26       1.50       0.65       0.56
     1    31     25       1.50       0.64       0.57
     1    30     24       1.50       0.62       0.59
     1    29     23       1.50       0.59       0.60
     1    28     22       1.50       0.58       0.62
     1    27     21       1.50       0.56       0.62
     1    26     20       1.50       0.55       0.63
     1    25     19       1.50       0.54       0.64
     1    24     18       1.50       0.53       0.65
     1    23     17       1.50       0.52       0.65
     1    22     16       1.50       0.52       0.65
     1    21     15       1.50       0.52       0.66
     1    20     14       1.50       0.51       0.66
     1    19     13       1.50       0.51       0.66
     1    18     12       1.50       0.51       0.66
     1    17     11       1.50       0.50       0.66
     1    16     10       1.50       0.49       0.67
     1    15      9       1.50       0.49       0.68
     1    14      8       1.50       0.47       0.68
     1    13      7       1.50       0.46       0.69
     1    12      6       1.50       0.46       0.69
     1    11      5       1.50       0.46       0.69
     1    10      4       1.50       0.50       0.66
     1     9      3       1.50       0.63       0.58
     1     8      2       1.50       0.94       0.37

    
 STOP
