1

                    Execution started at 20251122.171703         



                    ---------------------------------------
                                     SWAN
                    SIMULATION OF WAVES IN NEAR SHORE AREAS
                             VERSION NUMBER 41.51               
                    ---------------------------------------


    
 $ SWAN INPUT FILE: ARUGAM BAY (DYNAMIC FIX)
    
 PROJECT 'ARUGAM_BAY' '1'
    
 MODE NONSTATIONARY
    
 COORDINATES SPHERICAL
    
 
    
 $ 1. GRID
    
 CGRID REGULAR 81.702083 6.702083 0.0 0.2958 0.2958 71 71 CIRCLE 36 0.05 1.0 24
 Resolution in sigma-space: df/f =  0.1329
    
 
    
 $ 2. BATHYMETRY
    
 INPGRID BOTTOM 81.702083 6.702083 0.0 71 71 0.004167 0.004167 EXC -99
    
 READGRID BOTTOM 1 'arugam.bot' 1 0 FREE
 ** Warning          : Point removed from computational grid
Point with index (    25,    72) was removed from computational grid, because it is part of a 1D configuration or 1D connection.
 ** Warning          : Point removed from computational grid
Point with index (    30,    53) was removed from computational grid because it is an isolated wet point or is part of a 1D configuration or 1D connection.
 ** Warning          : Point removed from computational grid
Point with index (    30,    47) was removed from computational grid because it is an isolated wet point or is part of a 1D configuration or 1D connection.
 ** Warning          : Point removed from computational grid
Point with index (    40,     7) was removed from computational grid because it is an isolated wet point or is part of a 1D configuration or 1D connection.
 ** Warning          : Point removed from computational grid
Point with index (    28,    32) was removed from computational grid, because it is part of a 1D configuration or 1D connection.
 ** Warning          : Point removed from computational grid
Point with index (    29,    33) was removed from computational grid, because it is part of a 1D configuration or 1D connection.
 ** Warning          : Point removed from computational grid
Point with index (    29,    34) was removed from computational grid, because it is part of a 1D configuration or 1D connection.
 ** Warning          : Point removed from computational grid
Point with index (    29,    57) was removed from computational grid, because it is part of a 1D configuration or 1D connection.
 ** Warning          : Point removed from computational grid
Point with index (    30,    33) was removed from computational grid, because it is part of a 1D configuration or 1D connection.
 ** Warning          : Point removed from computational grid
Point with index (    33,    26) was removed from computational grid, because it is part of a 1D configuration or 1D connection.
 ** Warning          : Point removed from computational grid
Point with index (    34,    25) was removed from computational grid, because it is part of a 1D configuration or 1D connection.
 ** Warning          : Point removed from computational grid
Point with index (    36,     2) was removed from computational grid, because it is part of a 1D configuration or 1D connection.
 ** Warning          : Point removed from computational grid
Point with index (    37,     2) was removed from computational grid, because it is part of a 1D configuration or 1D connection.
 ** Warning          : Point removed from computational grid
Point with index (    39,     3) was removed from computational grid, because it is part of a 1D configuration or 1D connection.
 ** Warning          : Point removed from computational grid
Point with index (    39,     4) was removed from computational grid, because it is part of a 1D configuration or 1D connection.
 ** Warning          : Point removed from computational grid
Point with index (    39,    11) was removed from computational grid, because it is part of a 1D configuration or 1D connection.
    
 
    
 $ 3. BOUNDARIES
    
 BOUND SHAPE JONSWAP 3.3 PEAK DSPR DEGREES
    
 
    
 $ East Boundary (Uses original file)
    
 BOUNDSPEC SIDE EAST CONSTANT FILE 'arugam_boundary.bnd'
    
 
    
 $ North Boundary (Uses COPY file to avoid 'File already opened' error)
    
 BOUNDSPEC SIDE NORTH CONSTANT FILE 'arugam_boundary_copy.bnd'
    
 
    
 $ 4. PHYSICS (Zero Dissipation Mode)
    
 $ Instead of 'OFF FRICTION', we set coefficient to 0.0
    
 FRICTION JONSWAP CONSTANT 0.0
    
 OFF BREAKING
    
 OFF WCAP
    
 OFF REFRACTION
    
 OFF QUAD
    
 $ Triads are off by default in Deep water mode, so we omit the command to avoid errors
    
 
    
 $ 5. NUMERICS
    
 PROP BSBT
    
 NUMERIC STOPC 0.005 0.005 0.005 95. STAT 15
    
 
    
 $ 6. OUTPUTS
    
 POINTS 'DEEP' 81.9979 6.9438
    
 POINTS 'MID'  81.9000 6.8400
    
 POINTS 'SURF' 81.8450 6.8400
    
 
    
 $ Output every 1 Hour
    
 TABLE 'DEEP' HEAD 'deep_forecast.tbl' HS TPS DIR DEPTH QB OUTPUT 20250101.0600 1 HR
    
 TABLE 'MID'  HEAD 'mid_forecast.tbl'  HS TPS DIR DEPTH QB OUTPUT 20250101.0600 1 HR
    
 TABLE 'SURF' HEAD 'surf_forecast.tbl' HS TPS DIR DEPTH QB OUTPUT 20250101.0600 1 HR
    
 
    
 $ 7. RUN
    
 COMPUTE 20250101.0600 15 MIN 20250102.0600
 ** Warning          : Limiter is de-activated in case of no quadruplets
 Boundary data type TPAR processed, time:       21600.
 Boundary data type TPAR processed, time:       21600.
 Time of computation ->  20250101.061500      in sec:      22500.
 Boundary data type TPAR processed, time:       43200.
 Boundary data type TPAR processed, time:       43200.

----------------------------------------------------------------
                  COMPUTATIONAL PART OF SWAN
----------------------------------------------------------------

 Gridresolution       : MXC              72 MYC             72
                      : MCGRD          2839
                      : MSC              25 MDC             36
                      : MTC              96
                      : NSTATC            1 ITERMX           1
 Propagation flags    : ITFRE             1 IREFR            0
 Source term flags    : IBOT              1 ISURF            0
                      : IWCAP             0 IWIND            0
                      : ITRIAD            0 IQUAD            0
                      : IBRAG             0 IQCM             0
                      : IVEG              0 ITURBV           0
                      : IMUD              0 IICE             0
 Spatial step         : DX       0.4166E-02 DY      0.4166E-02
 Spectral bin         : df/f     0.1329E+00 DDIR    0.1000E+02
 Physical constants   : GRAV     0.9810E+01 RHO     0.1025E+04
 Wind input           : WSPEED   0.0000E+00 DIR     0.0000E+00
                      : ICEWIND  0.00
 Tail parameters      : E(f)     0.4000E+01 E(k)    0.2500E+01
                      : A(f)     0.5000E+01 A(k)    0.3000E+01
 Accuracy parameters  : DREL     0.5000E-02 NPNTS   0.9500E+02
                      : DHABS    0.5000E-02 CURVAT  0.5000E-02
                      : GRWMX    0.1000E+21
 Drying/flooding      : LEVEL    0.0000E+00 DEPMIN  0.5000E-01
 The Cartesian convention for wind and wave directions is used
 Scheme for geographic propagation is BSBT  
 Scheme geogr. space  : PROPSC            1 ICMAX            5
 Scheme spectral space: CSS      0.5000E+00 CDD     0.5000E+00
 Current is off
 Quadruplets is off
 Triads is off
 Bragg scattering is off
 QC scattering is off
 Surfbeat (IEM) is off
 JONSWAP (`73)        : GAMMA    0.0000E+00
 Vegetation is off
 Turbulence is off
 Fluid mud is off
 Dissipation by sea ice is off
 Whitecapping is off
 Surf breaking is off
 Set-up is off
 Diffraction is off
 Janssen (`89,`90)    : ALPHA    0.1000E-01 KAPPA   0.4100E+00
 Janssen (`89,`90)    : RHOA     0.1280E+01 RHOW    0.1025E+04

 1st and 2nd gen. wind: CF10     0.1880E+03 CF20    0.5900E+00
                      : CF30     0.1200E+00 CF40    0.2500E+03
                      : CF50     0.2300E-02 CF60   -0.2230E+00
                      : CF70     0.0000E+00 CF80   -0.5600E+00
                      : RHOAW    0.1249E-02 EDMLPM  0.3600E-02
                      : CDRAG    0.1230E-02 UMIN    0.1000E+01
                      : LIM_PM   0.1300E+00

 not possible to compute, first iteration

  ** WARNING : Differences in wave height at the boundary
 Relative difference between input and computation >=   0.10
                         Hs[m]      Hs[m]      Hs[-]
     ix    iy  index   (input) (computed) (relative)
  --------------------------------------------------
    26    72      8       1.43       1.24       0.13
    27    72     17       1.43       0.84       0.41
    28    72     28       1.43       0.69       0.52
    29    72     43       1.43       0.62       0.57
    30    72     58       1.43       0.58       0.59
    31    72     86       1.43       0.56       0.61
    32    72    116       1.43       0.54       0.62
    33    72    162       1.43       0.54       0.62
    34    72    208       1.43       0.53       0.63
    35    72    256       1.43       0.52       0.63
    36    72    306       1.43       0.52       0.63
    37    72    359       1.43       0.52       0.64
    38    72    416       1.43       0.51       0.64
    39    72    474       1.43       0.51       0.64
    40    72    535       1.43       0.50       0.65
    41    72    607       1.43       0.50       0.65
    42    72    679       1.43       0.50       0.65
    43    72    751       1.43       0.51       0.64
    44    72    823       1.43       0.50       0.65
    45    72    895       1.43       0.50       0.65
    46    72    967       1.43       0.50       0.65
    47    72   1039       1.43       0.51       0.64
    48    72   1111       1.43       0.51       0.64
    49    72   1183       1.43       0.50       0.65
    50    72   1255       1.43       0.50       0.65
    51    72   1327       1.43       0.50       0.65
    52    72   1399       1.43       0.53       0.63
    53    72   1471       1.43       0.55       0.61
    54    72   1543       1.43       0.55       0.61
    55    72   1615       1.43       0.55       0.61
    56    72   1687       1.43       0.53       0.62
    57    72   1759       1.43       0.56       0.61
    58    72   1831       1.43       0.54       0.62
    59    72   1903       1.43       0.55       0.62
    60    72   1975       1.43       0.53       0.63
    61    72   2047       1.43       0.53       0.63
    62    72   2119       1.43       0.54       0.62
    63    72   2191       1.43       0.56       0.60
    64    72   2263       1.43       0.58       0.59
    65    72   2335       1.43       0.59       0.58
    66    72   2407       1.43       0.61       0.57
    67    72   2479       1.43       0.63       0.56
    68    72   2551       1.43       0.65       0.54
    69    72   2623       1.43       0.69       0.52
    70    72   2695       1.43       0.73       0.48
    71    72   2767       1.43       0.80       0.44
    72    72   2839       1.43       1.00       0.30
    72    71   2838       1.43       0.95       0.34
    72    70   2837       1.43       0.95       0.34
    72    69   2836       1.43       0.95       0.34
    72    68   2835       1.43       0.94       0.34
    72    67   2834       1.43       0.93       0.35
    72    66   2833       1.43       0.93       0.35
    72    65   2832       1.43       0.94       0.34
    72    64   2831       1.43       0.94       0.34
    72    63   2830       1.43       0.94       0.34
    72    62   2829       1.43       0.94       0.34
    72    61   2828       1.43       0.94       0.34
    72    60   2827       1.43       0.94       0.34
    72    59   2826       1.43       0.94       0.34
    72    58   2825       1.43       0.94       0.34
    72    57   2824       1.43       0.94       0.34
    72    56   2823       1.43       0.94       0.34
    72    55   2822       1.43       0.94       0.34
    72    54   2821       1.43       0.94       0.34
    72    53   2820       1.43       0.94       0.34
    72    52   2819       1.43       0.94       0.34
    72    51   2818       1.43       0.94       0.34
    72    50   2817       1.43       0.94       0.34
    72    49   2816       1.43       0.94       0.34
    72    48   2815       1.43       0.94       0.34
    72    47   2814       1.43       0.94       0.34
    72    46   2813       1.43       0.94       0.34
    72    45   2812       1.43       0.94       0.34
    72    44   2811       1.43       0.94       0.34
    72    43   2810       1.43       0.94       0.34
    72    42   2809       1.43       0.94       0.34
    72    41   2808       1.43       0.94       0.34
    72    40   2807       1.43       0.94       0.34
    72    39   2806       1.43       0.94       0.34
    72    38   2805       1.43       0.94       0.34
    72    37   2804       1.43       0.94       0.34
    72    36   2803       1.43       0.94       0.34
    72    35   2802       1.43       0.94       0.34
    72    34   2801       1.43       0.94       0.34
    72    33   2800       1.43       0.94       0.34
    72    32   2799       1.43       0.94       0.34
    72    31   2798       1.43       0.94       0.34
    72    30   2797       1.43       0.94       0.34
    72    29   2796       1.43       0.94       0.34
    72    28   2795       1.43       0.94       0.34
    72    27   2794       1.43       0.94       0.34
    72    26   2793       1.43       0.94       0.34
    72    25   2792       1.43       0.94       0.34
    72    24   2791       1.43       0.94       0.34
    72    23   2790       1.43       0.94       0.34
    72    22   2789       1.43       0.95       0.34
    72    21   2788       1.43       0.95       0.34
    72    20   2787       1.43       0.95       0.34
    72    19   2786       1.43       0.95       0.34
    72    18   2785       1.43       0.95       0.34
    72    17   2784       1.43       0.95       0.34
    72    16   2783       1.43       0.95       0.33
    72    15   2782       1.43       0.95       0.33
    72    14   2781       1.43       0.95       0.33
    72    13   2780       1.43       0.95       0.33
    72    12   2779       1.43       0.96       0.33
    72    11   2778       1.43       0.96       0.33
    72    10   2777       1.43       0.96       0.32
    72     9   2776       1.43       0.97       0.32
    72     8   2775       1.43       0.98       0.32
    72     7   2774       1.43       0.99       0.31
    72     6   2773       1.43       1.00       0.30
    72     5   2772       1.43       1.02       0.28
    72     4   2771       1.43       1.06       0.26
    72     3   2770       1.43       1.12       0.22
    72     2   2769       1.43       1.22       0.14

 Time of computation ->  20250101.063000      in sec:      23400.
 not possible to compute, first iteration

  ** WARNING : Differences in wave height at the boundary
 Relative difference between input and computation >=   0.10
                         Hs[m]      Hs[m]      Hs[-]
     ix    iy  index   (input) (computed) (relative)
  --------------------------------------------------
    26    72      8       1.42       1.24       0.13
    27    72     17       1.42       0.84       0.41
    28    72     28       1.42       0.69       0.52
    29    72     43       1.42       0.62       0.57
    30    72     58       1.42       0.58       0.59
    31    72     86       1.42       0.56       0.61
    32    72    116       1.42       0.55       0.62
    33    72    162       1.42       0.54       0.62
    34    72    208       1.42       0.53       0.63
    35    72    256       1.42       0.53       0.63
    36    72    306       1.42       0.52       0.63
    37    72    359       1.42       0.52       0.63
    38    72    416       1.42       0.52       0.64
    39    72    474       1.42       0.51       0.64
    40    72    535       1.42       0.51       0.64
    41    72    607       1.42       0.50       0.65
    42    72    679       1.42       0.51       0.64
    43    72    751       1.42       0.52       0.63
    44    72    823       1.42       0.51       0.64
    45    72    895       1.42       0.51       0.64
    46    72    967       1.42       0.51       0.64
    47    72   1039       1.42       0.52       0.63
    48    72   1111       1.42       0.52       0.63
    49    72   1183       1.42       0.52       0.64
    50    72   1255       1.42       0.52       0.64
    51    72   1327       1.42       0.52       0.63
    52    72   1399       1.42       0.55       0.61
    53    72   1471       1.42       0.57       0.60
    54    72   1543       1.42       0.58       0.59
    55    72   1615       1.42       0.58       0.59
    56    72   1687       1.42       0.57       0.60
    57    72   1759       1.42       0.60       0.58
    58    72   1831       1.42       0.58       0.59
    59    72   1903       1.42       0.59       0.58
    60    72   1975       1.42       0.58       0.59
    61    72   2047       1.42       0.58       0.60
    62    72   2119       1.42       0.59       0.58
    63    72   2191       1.42       0.63       0.56
    64    72   2263       1.42       0.65       0.55
    65    72   2335       1.42       0.66       0.53
    66    72   2407       1.42       0.69       0.52
    67    72   2479       1.42       0.71       0.50
    68    72   2551       1.42       0.74       0.48
    69    72   2623       1.42       0.77       0.46
    70    72   2695       1.42       0.81       0.43
    71    72   2767       1.42       0.85       0.41
    72    72   2839       1.42       1.00       0.30
    72    71   2838       1.42       0.95       0.33
    72    70   2837       1.42       0.95       0.33
    72    69   2836       1.42       0.95       0.34
    72    68   2835       1.42       0.94       0.34
    72    67   2834       1.42       0.93       0.35
    72    66   2833       1.42       0.93       0.35
    72    65   2832       1.42       0.94       0.34
    72    64   2831       1.42       0.94       0.34
    72    63   2830       1.42       0.94       0.34
    72    62   2829       1.42       0.94       0.34
    72    61   2828       1.42       0.94       0.34
    72    60   2827       1.42       0.94       0.34
    72    59   2826       1.42       0.94       0.34
    72    58   2825       1.42       0.94       0.34
    72    57   2824       1.42       0.94       0.34
    72    56   2823       1.42       0.94       0.34
    72    55   2822       1.42       0.94       0.34
    72    54   2821       1.42       0.94       0.34
    72    53   2820       1.42       0.94       0.34
    72    52   2819       1.42       0.94       0.34
    72    51   2818       1.42       0.94       0.34
    72    50   2817       1.42       0.94       0.34
    72    49   2816       1.42       0.94       0.34
    72    48   2815       1.42       0.94       0.34
    72    47   2814       1.42       0.94       0.34
    72    46   2813       1.42       0.94       0.34
    72    45   2812       1.42       0.94       0.34
    72    44   2811       1.42       0.94       0.34
    72    43   2810       1.42       0.94       0.34
    72    42   2809       1.42       0.94       0.34
    72    41   2808       1.42       0.94       0.34
    72    40   2807       1.42       0.94       0.34
    72    39   2806       1.42       0.94       0.34
    72    38   2805       1.42       0.94       0.34
    72    37   2804       1.42       0.94       0.34
    72    36   2803       1.42       0.94       0.34
    72    35   2802       1.42       0.94       0.34
    72    34   2801       1.42       0.94       0.34
    72    33   2800       1.42       0.94       0.34
    72    32   2799       1.42       0.94       0.34
    72    31   2798       1.42       0.94       0.34
    72    30   2797       1.42       0.94       0.34
    72    29   2796       1.42       0.94       0.34
    72    28   2795       1.42       0.94       0.34
    72    27   2794       1.42       0.94       0.34
    72    26   2793       1.42       0.94       0.34
    72    25   2792       1.42       0.94       0.34
    72    24   2791       1.42       0.94       0.34
    72    23   2790       1.42       0.94       0.34
    72    22   2789       1.42       0.95       0.34
    72    21   2788       1.42       0.95       0.34
    72    20   2787       1.42       0.95       0.34
    72    19   2786       1.42       0.95       0.34
    72    18   2785       1.42       0.95       0.34
    72    17   2784       1.42       0.95       0.33
    72    16   2783       1.42       0.95       0.33
    72    15   2782       1.42       0.95       0.33
    72    14   2781       1.42       0.95       0.33
    72    13   2780       1.42       0.95       0.33
    72    12   2779       1.42       0.96       0.33
    72    11   2778       1.42       0.96       0.33
    72    10   2777       1.42       0.96       0.32
    72     9   2776       1.42       0.97       0.32
    72     8   2775       1.42       0.98       0.32
    72     7   2774       1.42       0.99       0.31
    72     6   2773       1.42       1.00       0.30
    72     5   2772       1.42       1.02       0.28
    72     4   2771       1.42       1.06       0.26
    72     3   2770       1.42       1.12       0.22
    72     2   2769       1.42       1.22       0.14

 Time of computation ->  20250101.064500      in sec:      24300.
 not possible to compute, first iteration

  ** WARNING : Differences in wave height at the boundary
 Relative difference between input and computation >=   0.10
                         Hs[m]      Hs[m]      Hs[-]
     ix    iy  index   (input) (computed) (relative)
  --------------------------------------------------
    26    72      8       1.42       1.24       0.13
    27    72     17       1.42       0.84       0.41
    28    72     28       1.42       0.69       0.52
    29    72     43       1.42       0.62       0.56
    30    72     58       1.42       0.58       0.59
    31    72     86       1.42       0.56       0.60
    32    72    116       1.42       0.55       0.61
    33    72    162       1.42       0.54       0.62
    34    72    208       1.42       0.54       0.62
    35    72    256       1.42       0.53       0.62
    36    72    306       1.42       0.53       0.63
    37    72    359       1.42       0.53       0.63
    38    72    416       1.42       0.53       0.63
    39    72    474       1.42       0.52       0.63
    40    72    535       1.42       0.52       0.64
    41    72    607       1.42       0.51       0.64
    42    72    679       1.42       0.52       0.63
    43    72    751       1.42       0.54       0.62
    44    72    823       1.42       0.53       0.63
    45    72    895       1.42       0.52       0.63
    46    72    967       1.42       0.53       0.63
    47    72   1039       1.42       0.54       0.62
    48    72   1111       1.42       0.54       0.62
    49    72   1183       1.42       0.54       0.62
    50    72   1255       1.42       0.54       0.62
    51    72   1327       1.42       0.55       0.61
    52    72   1399       1.42       0.58       0.59
    53    72   1471       1.42       0.61       0.57
    54    72   1543       1.42       0.62       0.57
    55    72   1615       1.42       0.62       0.56
    56    72   1687       1.42       0.61       0.57
    57    72   1759       1.42       0.64       0.55
    58    72   1831       1.42       0.63       0.56
    59    72   1903       1.42       0.64       0.55
    60    72   1975       1.42       0.62       0.56
    61    72   2047       1.42       0.62       0.56
    62    72   2119       1.42       0.64       0.55
    63    72   2191       1.42       0.68       0.52
    64    72   2263       1.42       0.70       0.51
    65    72   2335       1.42       0.72       0.50
    66    72   2407       1.42       0.74       0.48
    67    72   2479       1.42       0.76       0.47
    68    72   2551       1.42       0.78       0.45
    69    72   2623       1.42       0.81       0.43
    70    72   2695       1.42       0.84       0.41
    71    72   2767       1.42       0.86       0.39
    72    72   2839       1.42       0.99       0.30
    72    71   2838       1.42       0.95       0.33
    72    70   2837       1.42       0.95       0.33
    72    69   2836       1.42       0.95       0.33
    72    68   2835       1.42       0.94       0.34
    72    67   2834       1.42       0.93       0.35
    72    66   2833       1.42       0.93       0.35
    72    65   2832       1.42       0.94       0.34
    72    64   2831       1.42       0.94       0.34
    72    63   2830       1.42       0.94       0.34
    72    62   2829       1.42       0.94       0.34
    72    61   2828       1.42       0.94       0.34
    72    60   2827       1.42       0.94       0.34
    72    59   2826       1.42       0.94       0.34
    72    58   2825       1.42       0.94       0.34
    72    57   2824       1.42       0.94       0.34
    72    56   2823       1.42       0.94       0.34
    72    55   2822       1.42       0.94       0.34
    72    54   2821       1.42       0.94       0.34
    72    53   2820       1.42       0.94       0.34
    72    52   2819       1.42       0.94       0.34
    72    51   2818       1.42       0.94       0.34
    72    50   2817       1.42       0.94       0.34
    72    49   2816       1.42       0.94       0.34
    72    48   2815       1.42       0.94       0.34
    72    47   2814       1.42       0.94       0.34
    72    46   2813       1.42       0.94       0.34
    72    45   2812       1.42       0.94       0.34
    72    44   2811       1.42       0.94       0.34
    72    43   2810       1.42       0.94       0.34
    72    42   2809       1.42       0.94       0.34
    72    41   2808       1.42       0.94       0.34
    72    40   2807       1.42       0.94       0.34
    72    39   2806       1.42       0.94       0.34
    72    38   2805       1.42       0.94       0.34
    72    37   2804       1.42       0.94       0.34
    72    36   2803       1.42       0.94       0.34
    72    35   2802       1.42       0.94       0.34
    72    34   2801       1.42       0.94       0.34
    72    33   2800       1.42       0.94       0.34
    72    32   2799       1.42       0.94       0.34
    72    31   2798       1.42       0.94       0.34
    72    30   2797       1.42       0.94       0.34
    72    29   2796       1.42       0.94       0.34
    72    28   2795       1.42       0.94       0.34
    72    27   2794       1.42       0.94       0.34
    72    26   2793       1.42       0.94       0.34
    72    25   2792       1.42       0.94       0.34
    72    24   2791       1.42       0.94       0.34
    72    23   2790       1.42       0.95       0.34
    72    22   2789       1.42       0.95       0.34
    72    21   2788       1.42       0.95       0.34
    72    20   2787       1.42       0.95       0.34
    72    19   2786       1.42       0.95       0.33
    72    18   2785       1.42       0.95       0.33
    72    17   2784       1.42       0.95       0.33
    72    16   2783       1.42       0.95       0.33
    72    15   2782       1.42       0.95       0.33
    72    14   2781       1.42       0.95       0.33
    72    13   2780       1.42       0.95       0.33
    72    12   2779       1.42       0.96       0.33
    72    11   2778       1.42       0.96       0.33
    72    10   2777       1.42       0.96       0.32
    72     9   2776       1.42       0.97       0.32
    72     8   2775       1.42       0.98       0.31
    72     7   2774       1.42       0.99       0.31
    72     6   2773       1.42       1.00       0.30
    72     5   2772       1.42       1.02       0.28
    72     4   2771       1.42       1.06       0.26
    72     3   2770       1.42       1.12       0.21
    72     2   2769       1.42       1.22       0.14

 Time of computation ->  20250101.070000      in sec:      25200.
 not possible to compute, first iteration

  ** WARNING : Differences in wave height at the boundary
 Relative difference between input and computation >=   0.10
                         Hs[m]      Hs[m]      Hs[-]
     ix    iy  index   (input) (computed) (relative)
  --------------------------------------------------
    26    72      8       1.42       1.24       0.13
    27    72     17       1.42       0.84       0.41
    28    72     28       1.42       0.69       0.51
    29    72     43       1.42       0.63       0.56
    30    72     58       1.42       0.59       0.58
    31    72     86       1.42       0.57       0.60
    32    72    116       1.42       0.56       0.61
    33    72    162       1.42       0.55       0.61
    34    72    208       1.42       0.55       0.61
    35    72    256       1.42       0.55       0.62
    36    72    306       1.42       0.54       0.62
    37    72    359       1.42       0.54       0.62
    38    72    416       1.42       0.54       0.62
    39    72    474       1.42       0.54       0.62
    40    72    535       1.42       0.53       0.63
    41    72    607       1.42       0.53       0.63
    42    72    679       1.42       0.54       0.62
    43    72    751       1.42       0.56       0.61
    44    72    823       1.42       0.55       0.62
    45    72    895       1.42       0.54       0.62
    46    72    967       1.42       0.55       0.61
    47    72   1039       1.42       0.56       0.60
    48    72   1111       1.42       0.57       0.60
    49    72   1183       1.42       0.57       0.60
    50    72   1255       1.42       0.57       0.60
    51    72   1327       1.42       0.58       0.59
    52    72   1399       1.42       0.61       0.57
    53    72   1471       1.42       0.64       0.55
    54    72   1543       1.42       0.65       0.54
    55    72   1615       1.42       0.66       0.53
    56    72   1687       1.42       0.65       0.55
    57    72   1759       1.42       0.68       0.52
    58    72   1831       1.42       0.67       0.53
    59    72   1903       1.42       0.68       0.52
    60    72   1975       1.42       0.66       0.53
    61    72   2047       1.42       0.66       0.54
    62    72   2119       1.42       0.68       0.53
    63    72   2191       1.42       0.71       0.50
    64    72   2263       1.42       0.73       0.48
    65    72   2335       1.42       0.75       0.47
    66    72   2407       1.42       0.77       0.46
    67    72   2479       1.42       0.79       0.44
    68    72   2551       1.42       0.81       0.43
    69    72   2623       1.42       0.83       0.41
    70    72   2695       1.42       0.86       0.40
    71    72   2767       1.42       0.87       0.39
    72    72   2839       1.42       0.99       0.30
    72    71   2838       1.42       0.95       0.33
    72    70   2837       1.42       0.95       0.33
    72    69   2836       1.42       0.95       0.33
    72    68   2835       1.42       0.94       0.34
    72    67   2834       1.42       0.93       0.35
    72    66   2833       1.42       0.93       0.35
    72    65   2832       1.42       0.94       0.34
    72    64   2831       1.42       0.94       0.34
    72    63   2830       1.42       0.94       0.34
    72    62   2829       1.42       0.94       0.34
    72    61   2828       1.42       0.94       0.34
    72    60   2827       1.42       0.94       0.34
    72    59   2826       1.42       0.94       0.34
    72    58   2825       1.42       0.94       0.34
    72    57   2824       1.42       0.94       0.34
    72    56   2823       1.42       0.94       0.34
    72    55   2822       1.42       0.94       0.34
    72    54   2821       1.42       0.94       0.34
    72    53   2820       1.42       0.94       0.34
    72    52   2819       1.42       0.94       0.34
    72    51   2818       1.42       0.94       0.34
    72    50   2817       1.42       0.94       0.34
    72    49   2816       1.42       0.94       0.34
    72    48   2815       1.42       0.94       0.34
    72    47   2814       1.42       0.94       0.34
    72    46   2813       1.42       0.94       0.34
    72    45   2812       1.42       0.94       0.34
    72    44   2811       1.42       0.94       0.34
    72    43   2810       1.42       0.94       0.34
    72    42   2809       1.42       0.94       0.34
    72    41   2808       1.42       0.94       0.34
    72    40   2807       1.42       0.94       0.34
    72    39   2806       1.42       0.94       0.34
    72    38   2805       1.42       0.94       0.34
    72    37   2804       1.42       0.94       0.34
    72    36   2803       1.42       0.94       0.34
    72    35   2802       1.42       0.94       0.34
    72    34   2801       1.42       0.94       0.34
    72    33   2800       1.42       0.94       0.34
    72    32   2799       1.42       0.94       0.34
    72    31   2798       1.42       0.94       0.34
    72    30   2797       1.42       0.94       0.34
    72    29   2796       1.42       0.94       0.34
    72    28   2795       1.42       0.94       0.34
    72    27   2794       1.42       0.94       0.34
    72    26   2793       1.42       0.94       0.34
    72    25   2792       1.42       0.94       0.34
    72    24   2791       1.42       0.94       0.34
    72    23   2790       1.42       0.95       0.34
    72    22   2789       1.42       0.95       0.33
    72    21   2788       1.42       0.95       0.33
    72    20   2787       1.42       0.95       0.33
    72    19   2786       1.42       0.95       0.33
    72    18   2785       1.42       0.95       0.33
    72    17   2784       1.42       0.95       0.33
    72    16   2783       1.42       0.95       0.33
    72    15   2782       1.42       0.95       0.33
    72    14   2781       1.42       0.95       0.33
    72    13   2780       1.42       0.95       0.33
    72    12   2779       1.42       0.96       0.33
    72    11   2778       1.42       0.96       0.33
    72    10   2777       1.42       0.96       0.32
    72     9   2776       1.42       0.97       0.32
    72     8   2775       1.42       0.98       0.31
    72     7   2774       1.42       0.99       0.31
    72     6   2773       1.42       1.00       0.30
    72     5   2772       1.42       1.02       0.28
    72     4   2771       1.42       1.06       0.25
    72     3   2770       1.42       1.12       0.21
    72     2   2769       1.42       1.22       0.14

 Time of computation ->  20250101.071500      in sec:      26100.
 not possible to compute, first iteration

  ** WARNING : Differences in wave height at the boundary
 Relative difference between input and computation >=   0.10
                         Hs[m]      Hs[m]      Hs[-]
     ix    iy  index   (input) (computed) (relative)
  --------------------------------------------------
    26    72      8       1.42       1.24       0.13
    27    72     17       1.42       0.85       0.40
    28    72     28       1.42       0.70       0.51
    29    72     43       1.42       0.63       0.55
    30    72     58       1.42       0.60       0.58
    31    72     86       1.42       0.58       0.59
    32    72    116       1.42       0.57       0.60
    33    72    162       1.42       0.56       0.60
    34    72    208       1.42       0.56       0.61
    35    72    256       1.42       0.56       0.61
    36    72    306       1.42       0.56       0.61
    37    72    359       1.42       0.56       0.61
    38    72    416       1.42       0.55       0.61
    39    72    474       1.42       0.55       0.61
    40    72    535       1.42       0.55       0.61
    41    72    607       1.42       0.55       0.61
    42    72    679       1.42       0.56       0.61
    43    72    751       1.42       0.58       0.59
    44    72    823       1.42       0.57       0.60
    45    72    895       1.42       0.56       0.60
    46    72    967       1.42       0.57       0.60
    47    72   1039       1.42       0.59       0.59
    48    72   1111       1.42       0.59       0.58
    49    72   1183       1.42       0.59       0.58
    50    72   1255       1.42       0.59       0.58
    51    72   1327       1.42       0.60       0.57
    52    72   1399       1.42       0.64       0.55
    53    72   1471       1.42       0.68       0.52
    54    72   1543       1.42       0.69       0.52
    55    72   1615       1.42       0.69       0.51
    56    72   1687       1.42       0.68       0.52
    57    72   1759       1.42       0.72       0.50
    58    72   1831       1.42       0.70       0.51
    59    72   1903       1.42       0.71       0.50
    60    72   1975       1.42       0.69       0.51
    61    72   2047       1.42       0.68       0.52
    62    72   2119       1.42       0.70       0.51
    63    72   2191       1.42       0.74       0.48
    64    72   2263       1.42       0.76       0.47
    65    72   2335       1.42       0.77       0.46
    66    72   2407       1.42       0.79       0.44
    67    72   2479       1.42       0.81       0.43
    68    72   2551       1.42       0.83       0.42
    69    72   2623       1.42       0.85       0.40
    70    72   2695       1.42       0.87       0.39
    71    72   2767       1.42       0.88       0.38
    72    72   2839       1.42       0.99       0.30
    72    71   2838       1.42       0.95       0.33
    72    70   2837       1.42       0.95       0.33
    72    69   2836       1.42       0.95       0.33
    72    68   2835       1.42       0.94       0.34
    72    67   2834       1.42       0.93       0.35
    72    66   2833       1.42       0.93       0.35
    72    65   2832       1.42       0.94       0.34
    72    64   2831       1.42       0.94       0.34
    72    63   2830       1.42       0.94       0.34
    72    62   2829       1.42       0.94       0.34
    72    61   2828       1.42       0.94       0.34
    72    60   2827       1.42       0.94       0.34
    72    59   2826       1.42       0.94       0.34
    72    58   2825       1.42       0.94       0.34
    72    57   2824       1.42       0.94       0.34
    72    56   2823       1.42       0.94       0.34
    72    55   2822       1.42       0.94       0.34
    72    54   2821       1.42       0.94       0.34
    72    53   2820       1.42       0.94       0.34
    72    52   2819       1.42       0.94       0.34
    72    51   2818       1.42       0.94       0.34
    72    50   2817       1.42       0.94       0.34
    72    49   2816       1.42       0.94       0.34
    72    48   2815       1.42       0.94       0.34
    72    47   2814       1.42       0.94       0.34
    72    46   2813       1.42       0.94       0.34
    72    45   2812       1.42       0.94       0.34
    72    44   2811       1.42       0.94       0.34
    72    43   2810       1.42       0.94       0.34
    72    42   2809       1.42       0.94       0.34
    72    41   2808       1.42       0.94       0.34
    72    40   2807       1.42       0.94       0.34
    72    39   2806       1.42       0.94       0.34
    72    38   2805       1.42       0.94       0.34
    72    37   2804       1.42       0.94       0.34
    72    36   2803       1.42       0.94       0.34
    72    35   2802       1.42       0.94       0.34
    72    34   2801       1.42       0.94       0.34
    72    33   2800       1.42       0.94       0.34
    72    32   2799       1.42       0.94       0.34
    72    31   2798       1.42       0.94       0.34
    72    30   2797       1.42       0.94       0.34
    72    29   2796       1.42       0.94       0.34
    72    28   2795       1.42       0.94       0.34
    72    27   2794       1.42       0.94       0.34
    72    26   2793       1.42       0.94       0.33
    72    25   2792       1.42       0.94       0.33
    72    24   2791       1.42       0.95       0.33
    72    23   2790       1.42       0.95       0.33
    72    22   2789       1.42       0.95       0.33
    72    21   2788       1.42       0.95       0.33
    72    20   2787       1.42       0.95       0.33
    72    19   2786       1.42       0.95       0.33
    72    18   2785       1.42       0.95       0.33
    72    17   2784       1.42       0.95       0.33
    72    16   2783       1.42       0.95       0.33
    72    15   2782       1.42       0.95       0.33
    72    14   2781       1.42       0.95       0.33
    72    13   2780       1.42       0.95       0.33
    72    12   2779       1.42       0.96       0.33
    72    11   2778       1.42       0.96       0.33
    72    10   2777       1.42       0.96       0.32
    72     9   2776       1.42       0.97       0.32
    72     8   2775       1.42       0.98       0.31
    72     7   2774       1.42       0.99       0.31
    72     6   2773       1.42       1.00       0.30
    72     5   2772       1.42       1.02       0.28
    72     4   2771       1.42       1.06       0.25
    72     3   2770       1.42       1.12       0.21
    72     2   2769       1.42       1.22       0.14

 Time of computation ->  20250101.073000      in sec:      27000.
 not possible to compute, first iteration

  ** WARNING : Differences in wave height at the boundary
 Relative difference between input and computation >=   0.10
                         Hs[m]      Hs[m]      Hs[-]
     ix    iy  index   (input) (computed) (relative)
  --------------------------------------------------
    26    72      8       1.42       1.24       0.13
    27    72     17       1.42       0.85       0.40
    28    72     28       1.42       0.70       0.51
    29    72     43       1.42       0.64       0.55
    30    72     58       1.42       0.61       0.57
    31    72     86       1.42       0.59       0.58
    32    72    116       1.42       0.58       0.59
    33    72    162       1.42       0.58       0.59
    34    72    208       1.42       0.57       0.60
    35    72    256       1.42       0.57       0.60
    36    72    306       1.42       0.57       0.60
    37    72    359       1.42       0.57       0.60
    38    72    416       1.42       0.57       0.60
    39    72    474       1.42       0.57       0.60
    40    72    535       1.42       0.56       0.60
    41    72    607       1.42       0.56       0.60
    42    72    679       1.42       0.58       0.59
    43    72    751       1.42       0.60       0.58
    44    72    823       1.42       0.59       0.59
    45    72    895       1.42       0.58       0.59
    46    72    967       1.42       0.59       0.58
    47    72   1039       1.42       0.61       0.57
    48    72   1111       1.42       0.61       0.57
    49    72   1183       1.42       0.61       0.57
    50    72   1255       1.42       0.61       0.57
    51    72   1327       1.42       0.63       0.56
    52    72   1399       1.42       0.67       0.53
    53    72   1471       1.42       0.70       0.51
    54    72   1543       1.42       0.71       0.50
    55    72   1615       1.42       0.72       0.49
    56    72   1687       1.42       0.70       0.51
    57    72   1759       1.42       0.74       0.48
    58    72   1831       1.42       0.72       0.49
    59    72   1903       1.42       0.73       0.49
    60    72   1975       1.42       0.71       0.50
    61    72   2047       1.42       0.70       0.51
    62    72   2119       1.42       0.72       0.50
    63    72   2191       1.42       0.75       0.47
    64    72   2263       1.42       0.77       0.46
    65    72   2335       1.42       0.79       0.44
    66    72   2407       1.42       0.81       0.43
    67    72   2479       1.42       0.82       0.42
    68    72   2551       1.42       0.84       0.41
    69    72   2623       1.42       0.86       0.39
    70    72   2695       1.42       0.87       0.39
    71    72   2767       1.42       0.88       0.38
    72    72   2839       1.42       0.99       0.30
    72    71   2838       1.42       0.95       0.33
    72    70   2837       1.42       0.95       0.33
    72    69   2836       1.42       0.95       0.33
    72    68   2835       1.42       0.94       0.34
    72    67   2834       1.42       0.93       0.35
    72    66   2833       1.42       0.93       0.35
    72    65   2832       1.42       0.94       0.34
    72    64   2831       1.42       0.94       0.33
    72    63   2830       1.42       0.94       0.33
    72    62   2829       1.42       0.94       0.33
    72    61   2828       1.42       0.94       0.33
    72    60   2827       1.42       0.94       0.33
    72    59   2826       1.42       0.94       0.33
    72    58   2825       1.42       0.94       0.33
    72    57   2824       1.42       0.94       0.33
    72    56   2823       1.42       0.94       0.33
    72    55   2822       1.42       0.94       0.33
    72    54   2821       1.42       0.94       0.33
    72    53   2820       1.42       0.94       0.33
    72    52   2819       1.42       0.94       0.33
    72    51   2818       1.42       0.94       0.33
    72    50   2817       1.42       0.94       0.33
    72    49   2816       1.42       0.94       0.33
    72    48   2815       1.42       0.94       0.33
    72    47   2814       1.42       0.94       0.33
    72    46   2813       1.42       0.94       0.33
    72    45   2812       1.42       0.94       0.33
    72    44   2811       1.42       0.94       0.33
    72    43   2810       1.42       0.94       0.33
    72    42   2809       1.42       0.94       0.33
    72    41   2808       1.42       0.94       0.33
    72    40   2807       1.42       0.94       0.33
    72    39   2806       1.42       0.94       0.34
    72    38   2805       1.42       0.94       0.34
    72    37   2804       1.42       0.94       0.34
    72    36   2803       1.42       0.94       0.34
    72    35   2802       1.42       0.94       0.34
    72    34   2801       1.42       0.94       0.34
    72    33   2800       1.42       0.94       0.34
    72    32   2799       1.42       0.94       0.34
    72    31   2798       1.42       0.94       0.34
    72    30   2797       1.42       0.94       0.34
    72    29   2796       1.42       0.94       0.33
    72    28   2795       1.42       0.94       0.33
    72    27   2794       1.42       0.94       0.33
    72    26   2793       1.42       0.94       0.33
    72    25   2792       1.42       0.94       0.33
    72    24   2791       1.42       0.95       0.33
    72    23   2790       1.42       0.95       0.33
    72    22   2789       1.42       0.95       0.33
    72    21   2788       1.42       0.95       0.33
    72    20   2787       1.42       0.95       0.33
    72    19   2786       1.42       0.95       0.33
    72    18   2785       1.42       0.95       0.33
    72    17   2784       1.42       0.95       0.33
    72    16   2783       1.42       0.95       0.33
    72    15   2782       1.42       0.95       0.33
    72    14   2781       1.42       0.95       0.33
    72    13   2780       1.42       0.95       0.33
    72    12   2779       1.42       0.96       0.33
    72    11   2778       1.42       0.96       0.32
    72    10   2777       1.42       0.96       0.32
    72     9   2776       1.42       0.97       0.32
    72     8   2775       1.42       0.98       0.31
    72     7   2774       1.42       0.99       0.31
    72     6   2773       1.42       1.00       0.29
    72     5   2772       1.42       1.02       0.28
    72     4   2771       1.42       1.06       0.25
    72     3   2770       1.42       1.12       0.21
    72     2   2769       1.42       1.22       0.14

 Time of computation ->  20250101.074500      in sec:      27900.
 not possible to compute, first iteration

  ** WARNING : Differences in wave height at the boundary
 Relative difference between input and computation >=   0.10
                         Hs[m]      Hs[m]      Hs[-]
     ix    iy  index   (input) (computed) (relative)
  --------------------------------------------------
    26    72      8       1.42       1.24       0.13
    27    72     17       1.42       0.86       0.40
    28    72     28       1.42       0.71       0.50
    29    72     43       1.42       0.65       0.54
    30    72     58       1.42       0.62       0.57
    31    72     86       1.42       0.60       0.58
    32    72    116       1.42       0.59       0.58
    33    72    162       1.42       0.59       0.59
    34    72    208       1.42       0.58       0.59
    35    72    256       1.42       0.58       0.59
    36    72    306       1.42       0.58       0.59
    37    72    359       1.42       0.58       0.59
    38    72    416       1.42       0.58       0.59
    39    72    474       1.42       0.58       0.59
    40    72    535       1.42       0.58       0.59
    41    72    607       1.42       0.58       0.59
    42    72    679       1.42       0.59       0.58
    43    72    751       1.42       0.61       0.57
    44    72    823       1.42       0.60       0.58
    45    72    895       1.42       0.60       0.58
    46    72    967       1.42       0.61       0.57
    47    72   1039       1.42       0.62       0.56
    48    72   1111       1.42       0.63       0.56
    49    72   1183       1.42       0.63       0.56
    50    72   1255       1.42       0.63       0.56
    51    72   1327       1.42       0.64       0.55
    52    72   1399       1.42       0.68       0.52
    53    72   1471       1.42       0.72       0.49
    54    72   1543       1.42       0.73       0.49
    55    72   1615       1.42       0.74       0.48
    56    72   1687       1.42       0.72       0.49
    57    72   1759       1.42       0.76       0.47
    58    72   1831       1.42       0.74       0.48
    59    72   1903       1.42       0.74       0.48
    60    72   1975       1.42       0.72       0.49
    61    72   2047       1.42       0.71       0.50
    62    72   2119       1.42       0.73       0.49
    63    72   2191       1.42       0.76       0.46
    64    72   2263       1.42       0.78       0.45
    65    72   2335       1.42       0.80       0.44
    66    72   2407       1.42       0.82       0.42
    67    72   2479       1.42       0.83       0.41
    68    72   2551       1.42       0.85       0.40
    69    72   2623       1.42       0.87       0.39
    70    72   2695       1.42       0.88       0.38
    71    72   2767       1.42       0.88       0.38
    72    72   2839       1.42       0.99       0.30
    72    71   2838       1.42       0.95       0.33
    72    70   2837       1.42       0.95       0.33
    72    69   2836       1.42       0.95       0.33
    72    68   2835       1.42       0.94       0.33
    72    67   2834       1.42       0.93       0.35
    72    66   2833       1.42       0.93       0.35
    72    65   2832       1.42       0.94       0.34
    72    64   2831       1.42       0.94       0.33
    72    63   2830       1.42       0.94       0.33
    72    62   2829       1.42       0.94       0.33
    72    61   2828       1.42       0.94       0.33
    72    60   2827       1.42       0.94       0.33
    72    59   2826       1.42       0.94       0.33
    72    58   2825       1.42       0.94       0.33
    72    57   2824       1.42       0.94       0.33
    72    56   2823       1.42       0.94       0.33
    72    55   2822       1.42       0.94       0.33
    72    54   2821       1.42       0.94       0.33
    72    53   2820       1.42       0.94       0.33
    72    52   2819       1.42       0.94       0.33
    72    51   2818       1.42       0.94       0.33
    72    50   2817       1.42       0.94       0.33
    72    49   2816       1.42       0.94       0.33
    72    48   2815       1.42       0.94       0.33
    72    47   2814       1.42       0.94       0.33
    72    46   2813       1.42       0.94       0.33
    72    45   2812       1.42       0.94       0.33
    72    44   2811       1.42       0.94       0.33
    72    43   2810       1.42       0.94       0.33
    72    42   2809       1.42       0.94       0.33
    72    41   2808       1.42       0.94       0.33
    72    40   2807       1.42       0.94       0.33
    72    39   2806       1.42       0.94       0.33
    72    38   2805       1.42       0.94       0.34
    72    37   2804       1.42       0.94       0.34
    72    36   2803       1.42       0.94       0.34
    72    35   2802       1.42       0.94       0.34
    72    34   2801       1.42       0.94       0.33
    72    33   2800       1.42       0.94       0.33
    72    32   2799       1.42       0.94       0.34
    72    31   2798       1.42       0.94       0.34
    72    30   2797       1.42       0.94       0.33
    72    29   2796       1.42       0.94       0.33
    72    28   2795       1.42       0.94       0.33
    72    27   2794       1.42       0.94       0.33
    72    26   2793       1.42       0.94       0.33
    72    25   2792       1.42       0.95       0.33
    72    24   2791       1.42       0.95       0.33
    72    23   2790       1.42       0.95       0.33
    72    22   2789       1.42       0.95       0.33
    72    21   2788       1.42       0.95       0.33
    72    20   2787       1.42       0.95       0.33
    72    19   2786       1.42       0.95       0.33
    72    18   2785       1.42       0.95       0.33
    72    17   2784       1.42       0.95       0.33
    72    16   2783       1.42       0.95       0.33
    72    15   2782       1.42       0.95       0.33
    72    14   2781       1.42       0.95       0.33
    72    13   2780       1.42       0.95       0.33
    72    12   2779       1.42       0.96       0.33
    72    11   2778       1.42       0.96       0.32
    72    10   2777       1.42       0.96       0.32
    72     9   2776       1.42       0.97       0.32
    72     8   2775       1.42       0.98       0.31
    72     7   2774       1.42       0.99       0.30
    72     6   2773       1.42       1.00       0.29
    72     5   2772       1.42       1.02       0.28
    72     4   2771       1.42       1.06       0.25
    72     3   2770       1.42       1.12       0.21
    72     2   2769       1.42       1.22       0.14

 Time of computation ->  20250101.080000      in sec:      28800.
 not possible to compute, first iteration

  ** WARNING : Differences in wave height at the boundary
 Relative difference between input and computation >=   0.10
                         Hs[m]      Hs[m]      Hs[-]
     ix    iy  index   (input) (computed) (relative)
  --------------------------------------------------
    26    72      8       1.42       1.24       0.12
    27    72     17       1.42       0.86       0.39
    28    72     28       1.42       0.71       0.50
    29    72     43       1.42       0.65       0.54
    30    72     58       1.42       0.62       0.56
    31    72     86       1.42       0.61       0.57
    32    72    116       1.42       0.60       0.58
    33    72    162       1.42       0.60       0.58
    34    72    208       1.42       0.59       0.58
    35    72    256       1.42       0.59       0.58
    36    72    306       1.42       0.59       0.58
    37    72    359       1.42       0.59       0.58
    38    72    416       1.42       0.59       0.58
    39    72    474       1.42       0.59       0.58
    40    72    535       1.42       0.59       0.58
    41    72    607       1.42       0.59       0.58
    42    72    679       1.42       0.60       0.58
    43    72    751       1.42       0.62       0.56
    44    72    823       1.42       0.61       0.57
    45    72    895       1.42       0.61       0.57
    46    72    967       1.42       0.62       0.56
    47    72   1039       1.42       0.63       0.55
    48    72   1111       1.42       0.64       0.55
    49    72   1183       1.42       0.64       0.55
    50    72   1255       1.42       0.64       0.55
    51    72   1327       1.42       0.65       0.54
    52    72   1399       1.42       0.70       0.51
    53    72   1471       1.42       0.73       0.48
    54    72   1543       1.42       0.74       0.48
    55    72   1615       1.42       0.75       0.47
    56    72   1687       1.42       0.73       0.48
    57    72   1759       1.42       0.77       0.46
    58    72   1831       1.42       0.75       0.47
    59    72   1903       1.42       0.75       0.47
    60    72   1975       1.42       0.73       0.49
    61    72   2047       1.42       0.72       0.49
    62    72   2119       1.42       0.73       0.48
    63    72   2191       1.42       0.77       0.46
    64    72   2263       1.42       0.79       0.44
    65    72   2335       1.42       0.81       0.43
    66    72   2407       1.42       0.82       0.42
    67    72   2479       1.42       0.84       0.41
    68    72   2551       1.42       0.86       0.39
    69    72   2623       1.42       0.87       0.39
    70    72   2695       1.42       0.88       0.38
    71    72   2767       1.42       0.88       0.38
    72    72   2839       1.42       0.99       0.30
    72    71   2838       1.42       0.95       0.33
    72    70   2837       1.42       0.95       0.33
    72    69   2836       1.42       0.95       0.33
    72    68   2835       1.42       0.94       0.33
    72    67   2834       1.42       0.93       0.34
    72    66   2833       1.42       0.93       0.34
    72    65   2832       1.42       0.94       0.34
    72    64   2831       1.42       0.94       0.33
    72    63   2830       1.42       0.94       0.33
    72    62   2829       1.42       0.94       0.33
    72    61   2828       1.42       0.94       0.33
    72    60   2827       1.42       0.94       0.33
    72    59   2826       1.42       0.94       0.33
    72    58   2825       1.42       0.94       0.33
    72    57   2824       1.42       0.94       0.33
    72    56   2823       1.42       0.94       0.33
    72    55   2822       1.42       0.94       0.33
    72    54   2821       1.42       0.94       0.33
    72    53   2820       1.42       0.94       0.33
    72    52   2819       1.42       0.94       0.33
    72    51   2818       1.42       0.94       0.33
    72    50   2817       1.42       0.94       0.33
    72    49   2816       1.42       0.94       0.33
    72    48   2815       1.42       0.94       0.33
    72    47   2814       1.42       0.94       0.33
    72    46   2813       1.42       0.94       0.33
    72    45   2812       1.42       0.94       0.33
    72    44   2811       1.42       0.94       0.33
    72    43   2810       1.42       0.94       0.33
    72    42   2809       1.42       0.94       0.33
    72    41   2808       1.42       0.94       0.33
    72    40   2807       1.42       0.94       0.33
    72    39   2806       1.42       0.94       0.33
    72    38   2805       1.42       0.94       0.33
    72    37   2804       1.42       0.94       0.34
    72    36   2803       1.42       0.94       0.34
    72    35   2802       1.42       0.94       0.33
    72    34   2801       1.42       0.94       0.33
    72    33   2800       1.42       0.94       0.33
    72    32   2799       1.42       0.94       0.33
    72    31   2798       1.42       0.94       0.33
    72    30   2797       1.42       0.94       0.33
    72    29   2796       1.42       0.94       0.33
    72    28   2795       1.42       0.94       0.33
    72    27   2794       1.42       0.94       0.33
    72    26   2793       1.42       0.94       0.33
    72    25   2792       1.42       0.95       0.33
    72    24   2791       1.42       0.95       0.33
    72    23   2790       1.42       0.95       0.33
    72    22   2789       1.42       0.95       0.33
    72    21   2788       1.42       0.95       0.33
    72    20   2787       1.42       0.95       0.33
    72    19   2786       1.42       0.95       0.33
    72    18   2785       1.42       0.95       0.33
    72    17   2784       1.42       0.95       0.33
    72    16   2783       1.42       0.95       0.33
    72    15   2782       1.42       0.95       0.33
    72    14   2781       1.42       0.95       0.33
    72    13   2780       1.42       0.95       0.33
    72    12   2779       1.42       0.96       0.33
    72    11   2778       1.42       0.96       0.32
    72    10   2777       1.42       0.96       0.32
    72     9   2776       1.42       0.97       0.32
    72     8   2775       1.42       0.98       0.31
    72     7   2774       1.42       0.99       0.30
    72     6   2773       1.42       1.00       0.29
    72     5   2772       1.42       1.02       0.28
    72     4   2771       1.42       1.06       0.25
    72     3   2770       1.42       1.12       0.21
    72     2   2769       1.42       1.22       0.14

 Time of computation ->  20250101.081500      in sec:      29700.
 not possible to compute, first iteration

  ** WARNING : Differences in wave height at the boundary
 Relative difference between input and computation >=   0.10
                         Hs[m]      Hs[m]      Hs[-]
     ix    iy  index   (input) (computed) (relative)
  --------------------------------------------------
    26    72      8       1.42       1.24       0.12
    27    72     17       1.42       0.86       0.39
    28    72     28       1.42       0.72       0.49
    29    72     43       1.42       0.66       0.53
    30    72     58       1.42       0.63       0.55
    31    72     86       1.42       0.61       0.57
    32    72    116       1.42       0.61       0.57
    33    72    162       1.42       0.60       0.57
    34    72    208       1.42       0.60       0.58
    35    72    256       1.42       0.60       0.58
    36    72    306       1.42       0.60       0.57
    37    72    359       1.42       0.60       0.58
    38    72    416       1.42       0.60       0.58
    39    72    474       1.42       0.60       0.58
    40    72    535       1.42       0.60       0.58
    41    72    607       1.42       0.60       0.58
    42    72    679       1.42       0.61       0.57
    43    72    751       1.42       0.63       0.55
    44    72    823       1.42       0.62       0.56
    45    72    895       1.42       0.62       0.56
    46    72    967       1.42       0.63       0.56
    47    72   1039       1.42       0.64       0.55
    48    72   1111       1.42       0.65       0.54
    49    72   1183       1.42       0.65       0.54
    50    72   1255       1.42       0.65       0.54
    51    72   1327       1.42       0.66       0.53
    52    72   1399       1.42       0.70       0.50
    53    72   1471       1.42       0.74       0.48
    54    72   1543       1.42       0.75       0.47
    55    72   1615       1.42       0.76       0.46
    56    72   1687       1.42       0.74       0.48
    57    72   1759       1.42       0.77       0.45
    58    72   1831       1.42       0.75       0.47
    59    72   1903       1.42       0.76       0.46
    60    72   1975       1.42       0.73       0.48
    61    72   2047       1.42       0.72       0.49
    62    72   2119       1.42       0.74       0.48
    63    72   2191       1.42       0.77       0.45
    64    72   2263       1.42       0.79       0.44
    65    72   2335       1.42       0.81       0.43
    66    72   2407       1.42       0.83       0.41
    67    72   2479       1.42       0.85       0.40
    68    72   2551       1.42       0.86       0.39
    69    72   2623       1.42       0.87       0.38
    70    72   2695       1.42       0.88       0.38
    71    72   2767       1.42       0.88       0.38
    72    72   2839       1.42       0.99       0.30
    72    71   2838       1.42       0.95       0.33
    72    70   2837       1.42       0.95       0.33
    72    69   2836       1.42       0.95       0.33
    72    68   2835       1.42       0.94       0.33
    72    67   2834       1.42       0.93       0.34
    72    66   2833       1.42       0.93       0.34
    72    65   2832       1.42       0.94       0.34
    72    64   2831       1.42       0.94       0.33
    72    63   2830       1.42       0.94       0.33
    72    62   2829       1.42       0.94       0.33
    72    61   2828       1.42       0.94       0.33
    72    60   2827       1.42       0.94       0.33
    72    59   2826       1.42       0.94       0.33
    72    58   2825       1.42       0.94       0.33
    72    57   2824       1.42       0.94       0.33
    72    56   2823       1.42       0.94       0.33
    72    55   2822       1.42       0.94       0.33
    72    54   2821       1.42       0.94       0.33
    72    53   2820       1.42       0.94       0.33
    72    52   2819       1.42       0.94       0.33
    72    51   2818       1.42       0.94       0.33
    72    50   2817       1.42       0.94       0.33
    72    49   2816       1.42       0.94       0.33
    72    48   2815       1.42       0.94       0.33
    72    47   2814       1.42       0.94       0.33
    72    46   2813       1.42       0.94       0.33
    72    45   2812       1.42       0.94       0.33
    72    44   2811       1.42       0.94       0.33
    72    43   2810       1.42       0.94       0.33
    72    42   2809       1.42       0.94       0.33
    72    41   2808       1.42       0.94       0.33
    72    40   2807       1.42       0.94       0.33
    72    39   2806       1.42       0.94       0.33
    72    38   2805       1.42       0.94       0.33
    72    37   2804       1.42       0.94       0.33
    72    36   2803       1.42       0.94       0.33
    72    35   2802       1.42       0.94       0.33
    72    34   2801       1.42       0.94       0.33
    72    33   2800       1.42       0.94       0.33
    72    32   2799       1.42       0.94       0.33
    72    31   2798       1.42       0.94       0.33
    72    30   2797       1.42       0.94       0.33
    72    29   2796       1.42       0.94       0.33
    72    28   2795       1.42       0.94       0.33
    72    27   2794       1.42       0.94       0.33
    72    26   2793       1.42       0.95       0.33
    72    25   2792       1.42       0.95       0.33
    72    24   2791       1.42       0.95       0.33
    72    23   2790       1.42       0.95       0.33
    72    22   2789       1.42       0.95       0.33
    72    21   2788       1.42       0.95       0.33
    72    20   2787       1.42       0.95       0.33
    72    19   2786       1.42       0.95       0.33
    72    18   2785       1.42       0.95       0.33
    72    17   2784       1.42       0.95       0.33
    72    16   2783       1.42       0.95       0.33
    72    15   2782       1.42       0.95       0.33
    72    14   2781       1.42       0.95       0.33
    72    13   2780       1.42       0.95       0.33
    72    12   2779       1.42       0.96       0.32
    72    11   2778       1.42       0.96       0.32
    72    10   2777       1.42       0.96       0.32
    72     9   2776       1.42       0.97       0.32
    72     8   2775       1.42       0.98       0.31
    72     7   2774       1.42       0.99       0.30
    72     6   2773       1.42       1.00       0.29
    72     5   2772       1.42       1.02       0.28
    72     4   2771       1.42       1.06       0.25
    72     3   2770       1.42       1.12       0.21
    72     2   2769       1.42       1.22       0.14

 Time of computation ->  20250101.083000      in sec:      30600.
 not possible to compute, first iteration

  ** WARNING : Differences in wave height at the boundary
 Relative difference between input and computation >=   0.10
                         Hs[m]      Hs[m]      Hs[-]
     ix    iy  index   (input) (computed) (relative)
  --------------------------------------------------
    26    72      8       1.41       1.24       0.12
    27    72     17       1.41       0.86       0.39
    28    72     28       1.41       0.72       0.49
    29    72     43       1.41       0.66       0.53
    30    72     58       1.41       0.63       0.55
    31    72     86       1.41       0.62       0.56
    32    72    116       1.41       0.61       0.57
    33    72    162       1.41       0.61       0.57
    34    72    208       1.41       0.61       0.57
    35    72    256       1.41       0.61       0.57
    36    72    306       1.41       0.61       0.57
    37    72    359       1.41       0.61       0.57
    38    72    416       1.41       0.61       0.57
    39    72    474       1.41       0.60       0.57
    40    72    535       1.41       0.60       0.57
    41    72    607       1.41       0.60       0.57
    42    72    679       1.41       0.61       0.57
    43    72    751       1.41       0.64       0.55
    44    72    823       1.41       0.63       0.56
    45    72    895       1.41       0.62       0.56
    46    72    967       1.41       0.63       0.55
    47    72   1039       1.41       0.65       0.54
    48    72   1111       1.41       0.65       0.54
    49    72   1183       1.41       0.65       0.54
    50    72   1255       1.41       0.65       0.54
    51    72   1327       1.41       0.67       0.53
    52    72   1399       1.41       0.71       0.50
    53    72   1471       1.41       0.75       0.47
    54    72   1543       1.41       0.76       0.47
    55    72   1615       1.41       0.76       0.46
    56    72   1687       1.41       0.74       0.47
    57    72   1759       1.41       0.78       0.45
    58    72   1831       1.41       0.76       0.46
    59    72   1903       1.41       0.76       0.46
    60    72   1975       1.41       0.74       0.48
    61    72   2047       1.41       0.73       0.49
    62    72   2119       1.41       0.74       0.48
    63    72   2191       1.41       0.78       0.45
    64    72   2263       1.41       0.80       0.44
    65    72   2335       1.41       0.81       0.42
    66    72   2407       1.41       0.83       0.41
    67    72   2479       1.41       0.85       0.40
    68    72   2551       1.41       0.86       0.39
    69    72   2623       1.41       0.87       0.38
    70    72   2695       1.41       0.88       0.38
    71    72   2767       1.41       0.88       0.38
    72    72   2839       1.41       0.99       0.30
    72    71   2838       1.41       0.95       0.33
    72    70   2837       1.41       0.95       0.33
    72    69   2836       1.41       0.95       0.33
    72    68   2835       1.41       0.94       0.33
    72    67   2834       1.41       0.93       0.34
    72    66   2833       1.41       0.93       0.34
    72    65   2832       1.41       0.94       0.33
    72    64   2831       1.41       0.94       0.33
    72    63   2830       1.41       0.94       0.33
    72    62   2829       1.41       0.94       0.33
    72    61   2828       1.41       0.94       0.33
    72    60   2827       1.41       0.94       0.33
    72    59   2826       1.41       0.94       0.33
    72    58   2825       1.41       0.94       0.33
    72    57   2824       1.41       0.94       0.33
    72    56   2823       1.41       0.94       0.33
    72    55   2822       1.41       0.94       0.33
    72    54   2821       1.41       0.94       0.33
    72    53   2820       1.41       0.94       0.33
    72    52   2819       1.41       0.94       0.33
    72    51   2818       1.41       0.94       0.33
    72    50   2817       1.41       0.94       0.33
    72    49   2816       1.41       0.94       0.33
    72    48   2815       1.41       0.94       0.33
    72    47   2814       1.41       0.94       0.33
    72    46   2813       1.41       0.94       0.33
    72    45   2812       1.41       0.94       0.33
    72    44   2811       1.41       0.94       0.33
    72    43   2810       1.41       0.94       0.33
    72    42   2809       1.41       0.94       0.33
    72    41   2808       1.41       0.94       0.33
    72    40   2807       1.41       0.94       0.33
    72    39   2806       1.41       0.94       0.33
    72    38   2805       1.41       0.94       0.33
    72    37   2804       1.41       0.94       0.33
    72    36   2803       1.41       0.94       0.33
    72    35   2802       1.41       0.94       0.33
    72    34   2801       1.41       0.94       0.33
    72    33   2800       1.41       0.94       0.33
    72    32   2799       1.41       0.94       0.33
    72    31   2798       1.41       0.94       0.33
    72    30   2797       1.41       0.94       0.33
    72    29   2796       1.41       0.94       0.33
    72    28   2795       1.41       0.94       0.33
    72    27   2794       1.41       0.94       0.33
    72    26   2793       1.41       0.95       0.33
    72    25   2792       1.41       0.95       0.33
    72    24   2791       1.41       0.95       0.33
    72    23   2790       1.41       0.95       0.33
    72    22   2789       1.41       0.95       0.33
    72    21   2788       1.41       0.95       0.33
    72    20   2787       1.41       0.95       0.33
    72    19   2786       1.41       0.95       0.33
    72    18   2785       1.41       0.95       0.33
    72    17   2784       1.41       0.95       0.33
    72    16   2783       1.41       0.95       0.33
    72    15   2782       1.41       0.95       0.33
    72    14   2781       1.41       0.95       0.33
    72    13   2780       1.41       0.95       0.33
    72    12   2779       1.41       0.96       0.32
    72    11   2778       1.41       0.96       0.32
    72    10   2777       1.41       0.96       0.32
    72     9   2776       1.41       0.97       0.32
    72     8   2775       1.41       0.98       0.31
    72     7   2774       1.41       0.99       0.30
    72     6   2773       1.41       1.00       0.29
    72     5   2772       1.41       1.02       0.28
    72     4   2771       1.41       1.06       0.25
    72     3   2770       1.41       1.11       0.21
    72     2   2769       1.41       1.21       0.14

 Time of computation ->  20250101.084500      in sec:      31500.
 not possible to compute, first iteration

  ** WARNING : Differences in wave height at the boundary
 Relative difference between input and computation >=   0.10
                         Hs[m]      Hs[m]      Hs[-]
     ix    iy  index   (input) (computed) (relative)
  --------------------------------------------------
    26    72      8       1.41       1.24       0.12
    27    72     17       1.41       0.87       0.39
    28    72     28       1.41       0.72       0.49
    29    72     43       1.41       0.67       0.53
    30    72     58       1.41       0.64       0.55
    31    72     86       1.41       0.62       0.56
    32    72    116       1.41       0.62       0.56
    33    72    162       1.41       0.61       0.57
    34    72    208       1.41       0.61       0.57
    35    72    256       1.41       0.61       0.57
    36    72    306       1.41       0.61       0.57
    37    72    359       1.41       0.61       0.57
    38    72    416       1.41       0.61       0.57
    39    72    474       1.41       0.61       0.57
    40    72    535       1.41       0.61       0.57
    41    72    607       1.41       0.61       0.57
    42    72    679       1.41       0.62       0.56
    43    72    751       1.41       0.64       0.55
    44    72    823       1.41       0.63       0.55
    45    72    895       1.41       0.63       0.56
    46    72    967       1.41       0.64       0.55
    47    72   1039       1.41       0.65       0.54
    48    72   1111       1.41       0.66       0.54
    49    72   1183       1.41       0.66       0.54
    50    72   1255       1.41       0.66       0.54
    51    72   1327       1.41       0.67       0.53
    52    72   1399       1.41       0.71       0.49
    53    72   1471       1.41       0.75       0.47
    54    72   1543       1.41       0.76       0.46
    55    72   1615       1.41       0.77       0.46
    56    72   1687       1.41       0.75       0.47
    57    72   1759       1.41       0.78       0.45
    58    72   1831       1.41       0.76       0.46
    59    72   1903       1.41       0.76       0.46
    60    72   1975       1.41       0.74       0.48
    61    72   2047       1.41       0.73       0.48
    62    72   2119       1.41       0.74       0.47
    63    72   2191       1.41       0.78       0.45
    64    72   2263       1.41       0.80       0.43
    65    72   2335       1.41       0.82       0.42
    66    72   2407       1.41       0.83       0.41
    67    72   2479       1.41       0.85       0.40
    68    72   2551       1.41       0.86       0.39
    69    72   2623       1.41       0.88       0.38
    70    72   2695       1.41       0.88       0.38
    71    72   2767       1.41       0.88       0.38
    72    72   2839       1.41       0.99       0.30
    72    71   2838       1.41       0.95       0.33
    72    70   2837       1.41       0.95       0.33
    72    69   2836       1.41       0.95       0.33
    72    68   2835       1.41       0.94       0.33
    72    67   2834       1.41       0.93       0.34
    72    66   2833       1.41       0.93       0.34
    72    65   2832       1.41       0.94       0.33
    72    64   2831       1.41       0.94       0.33
    72    63   2830       1.41       0.94       0.33
    72    62   2829       1.41       0.94       0.33
    72    61   2828       1.41       0.94       0.33
    72    60   2827       1.41       0.94       0.33
    72    59   2826       1.41       0.94       0.33
    72    58   2825       1.41       0.94       0.33
    72    57   2824       1.41       0.94       0.33
    72    56   2823       1.41       0.94       0.33
    72    55   2822       1.41       0.94       0.33
    72    54   2821       1.41       0.94       0.33
    72    53   2820       1.41       0.94       0.33
    72    52   2819       1.41       0.94       0.33
    72    51   2818       1.41       0.94       0.33
    72    50   2817       1.41       0.94       0.33
    72    49   2816       1.41       0.94       0.33
    72    48   2815       1.41       0.94       0.33
    72    47   2814       1.41       0.94       0.33
    72    46   2813       1.41       0.94       0.33
    72    45   2812       1.41       0.94       0.33
    72    44   2811       1.41       0.94       0.33
    72    43   2810       1.41       0.94       0.33
    72    42   2809       1.41       0.94       0.33
    72    41   2808       1.41       0.94       0.33
    72    40   2807       1.41       0.94       0.33
    72    39   2806       1.41       0.94       0.33
    72    38   2805       1.41       0.94       0.33
    72    37   2804       1.41       0.94       0.33
    72    36   2803       1.41       0.94       0.33
    72    35   2802       1.41       0.94       0.33
    72    34   2801       1.41       0.94       0.33
    72    33   2800       1.41       0.94       0.33
    72    32   2799       1.41       0.94       0.33
    72    31   2798       1.41       0.94       0.33
    72    30   2797       1.41       0.94       0.33
    72    29   2796       1.41       0.94       0.33
    72    28   2795       1.41       0.94       0.33
    72    27   2794       1.41       0.95       0.33
    72    26   2793       1.41       0.95       0.33
    72    25   2792       1.41       0.95       0.33
    72    24   2791       1.41       0.95       0.33
    72    23   2790       1.41       0.95       0.33
    72    22   2789       1.41       0.95       0.33
    72    21   2788       1.41       0.95       0.33
    72    20   2787       1.41       0.95       0.33
    72    19   2786       1.41       0.95       0.33
    72    18   2785       1.41       0.95       0.33
    72    17   2784       1.41       0.95       0.33
    72    16   2783       1.41       0.95       0.33
    72    15   2782       1.41       0.95       0.33
    72    14   2781       1.41       0.95       0.33
[...]
    72     5   2772       1.33       1.01       0.24
    72     4   2771       1.33       1.04       0.22
    72     3   2770       1.33       1.08       0.19
    72     2   2769       1.33       1.17       0.12

 Time of computation ->  20250102.053000      in sec:     106200.
 not possible to compute, first iteration

  ** WARNING : Differences in wave height at the boundary
 Relative difference between input and computation >=   0.10
                         Hs[m]      Hs[m]      Hs[-]
     ix    iy  index   (input) (computed) (relative)
  --------------------------------------------------
    26    72      8       1.33       1.15       0.13
    27    72     17       1.33       0.81       0.39
    28    72     28       1.33       0.68       0.49
    29    72     43       1.33       0.64       0.52
    30    72     58       1.33       0.62       0.54
    31    72     86       1.33       0.61       0.54
    32    72    116       1.33       0.60       0.55
    33    72    162       1.33       0.60       0.55
    34    72    208       1.33       0.60       0.55
    35    72    256       1.33       0.60       0.55
    36    72    306       1.33       0.61       0.54
    37    72    359       1.33       0.61       0.54
    38    72    416       1.33       0.61       0.54
    39    72    474       1.33       0.61       0.54
    40    72    535       1.33       0.60       0.55
    41    72    607       1.33       0.60       0.55
    42    72    679       1.33       0.62       0.54
    43    72    751       1.33       0.64       0.52
    44    72    823       1.33       0.63       0.53
    45    72    895       1.33       0.62       0.53
    46    72    967       1.33       0.64       0.52
    47    72   1039       1.33       0.65       0.51
    48    72   1111       1.33       0.66       0.51
    49    72   1183       1.33       0.65       0.51
    50    72   1255       1.33       0.65       0.51
    51    72   1327       1.33       0.67       0.50
    52    72   1399       1.33       0.71       0.47
    53    72   1471       1.33       0.75       0.44
    54    72   1543       1.33       0.75       0.43
    55    72   1615       1.33       0.76       0.43
    56    72   1687       1.33       0.74       0.44
    57    72   1759       1.33       0.78       0.42
    58    72   1831       1.33       0.75       0.43
    59    72   1903       1.33       0.76       0.43
    60    72   1975       1.33       0.73       0.45
    61    72   2047       1.33       0.72       0.46
    62    72   2119       1.33       0.74       0.45
    63    72   2191       1.33       0.77       0.42
    64    72   2263       1.33       0.79       0.40
    65    72   2335       1.33       0.81       0.39
    66    72   2407       1.33       0.83       0.38
    67    72   2479       1.33       0.84       0.37
    68    72   2551       1.33       0.86       0.36
    69    72   2623       1.33       0.86       0.35
    70    72   2695       1.33       0.87       0.35
    71    72   2767       1.33       0.87       0.35
    72    72   2839       1.33       0.97       0.27
    72    71   2838       1.33       0.94       0.30
    72    70   2837       1.33       0.94       0.30
    72    69   2836       1.33       0.94       0.30
    72    68   2835       1.33       0.93       0.30
    72    67   2834       1.33       0.92       0.31
    72    66   2833       1.33       0.92       0.31
    72    65   2832       1.33       0.93       0.30
    72    64   2831       1.33       0.93       0.30
    72    63   2830       1.33       0.93       0.30
    72    62   2829       1.33       0.93       0.30
    72    61   2828       1.33       0.93       0.30
    72    60   2827       1.33       0.93       0.30
    72    59   2826       1.33       0.93       0.30
    72    58   2825       1.33       0.93       0.30
    72    57   2824       1.33       0.93       0.30
    72    56   2823       1.33       0.93       0.30
    72    55   2822       1.33       0.93       0.30
    72    54   2821       1.33       0.93       0.30
    72    53   2820       1.33       0.93       0.30
    72    52   2819       1.33       0.93       0.30
    72    51   2818       1.33       0.93       0.30
    72    50   2817       1.33       0.93       0.30
    72    49   2816       1.33       0.93       0.30
    72    48   2815       1.33       0.93       0.30
    72    47   2814       1.33       0.93       0.30
    72    46   2813       1.33       0.93       0.30
    72    45   2812       1.33       0.93       0.30
    72    44   2811       1.33       0.94       0.30
    72    43   2810       1.33       0.94       0.30
    72    42   2809       1.33       0.94       0.30
    72    41   2808       1.33       0.93       0.30
    72    40   2807       1.33       0.93       0.30
    72    39   2806       1.33       0.93       0.30
    72    38   2805       1.33       0.93       0.30
    72    37   2804       1.33       0.93       0.30
    72    36   2803       1.33       0.93       0.30
    72    35   2802       1.33       0.93       0.30
    72    34   2801       1.33       0.93       0.30
    72    33   2800       1.33       0.93       0.30
    72    32   2799       1.33       0.93       0.30
    72    31   2798       1.33       0.93       0.30
    72    30   2797       1.33       0.93       0.30
    72    29   2796       1.33       0.94       0.30
    72    28   2795       1.33       0.94       0.30
    72    27   2794       1.33       0.94       0.30
    72    26   2793       1.33       0.94       0.30
    72    25   2792       1.33       0.94       0.30
    72    24   2791       1.33       0.94       0.30
    72    23   2790       1.33       0.94       0.30
    72    22   2789       1.33       0.94       0.30
    72    21   2788       1.33       0.94       0.30
    72    20   2787       1.33       0.94       0.30
    72    19   2786       1.33       0.94       0.30
    72    18   2785       1.33       0.94       0.30
    72    17   2784       1.33       0.94       0.29
    72    16   2783       1.33       0.94       0.29
    72    15   2782       1.33       0.94       0.29
    72    14   2781       1.33       0.94       0.29
    72    13   2780       1.33       0.94       0.29
    72    12   2779       1.33       0.95       0.29
    72    11   2778       1.33       0.95       0.29
    72    10   2777       1.33       0.95       0.28
    72     9   2776       1.33       0.96       0.28
    72     8   2775       1.33       0.96       0.28
    72     7   2774       1.33       0.97       0.27
    72     6   2773       1.33       0.99       0.26
    72     5   2772       1.33       1.01       0.24
    72     4   2771       1.33       1.04       0.22
    72     3   2770       1.33       1.08       0.19
    72     2   2769       1.33       1.17       0.12

 Time of computation ->  20250102.054500      in sec:     107100.
 not possible to compute, first iteration

  ** WARNING : Differences in wave height at the boundary
 Relative difference between input and computation >=   0.10
                         Hs[m]      Hs[m]      Hs[-]
     ix    iy  index   (input) (computed) (relative)
  --------------------------------------------------
    26    72      8       1.33       1.15       0.13
    27    72     17       1.33       0.81       0.39
    28    72     28       1.33       0.68       0.49
    29    72     43       1.33       0.64       0.52
    30    72     58       1.33       0.62       0.54
    31    72     86       1.33       0.61       0.54
    32    72    116       1.33       0.60       0.55
    33    72    162       1.33       0.60       0.55
    34    72    208       1.33       0.60       0.55
    35    72    256       1.33       0.60       0.55
    36    72    306       1.33       0.61       0.54
    37    72    359       1.33       0.61       0.54
    38    72    416       1.33       0.61       0.54
    39    72    474       1.33       0.61       0.54
    40    72    535       1.33       0.60       0.55
    41    72    607       1.33       0.60       0.55
    42    72    679       1.33       0.62       0.54
    43    72    751       1.33       0.64       0.52
    44    72    823       1.33       0.63       0.53
    45    72    895       1.33       0.62       0.53
    46    72    967       1.33       0.64       0.52
    47    72   1039       1.33       0.65       0.51
    48    72   1111       1.33       0.66       0.51
    49    72   1183       1.33       0.65       0.51
    50    72   1255       1.33       0.65       0.51
    51    72   1327       1.33       0.67       0.50
    52    72   1399       1.33       0.71       0.47
    53    72   1471       1.33       0.75       0.44
    54    72   1543       1.33       0.75       0.43
    55    72   1615       1.33       0.76       0.43
    56    72   1687       1.33       0.74       0.44
    57    72   1759       1.33       0.78       0.42
    58    72   1831       1.33       0.75       0.43
    59    72   1903       1.33       0.76       0.43
    60    72   1975       1.33       0.73       0.45
    61    72   2047       1.33       0.72       0.46
    62    72   2119       1.33       0.74       0.45
    63    72   2191       1.33       0.77       0.42
    64    72   2263       1.33       0.79       0.40
    65    72   2335       1.33       0.81       0.39
    66    72   2407       1.33       0.83       0.38
    67    72   2479       1.33       0.84       0.37
    68    72   2551       1.33       0.86       0.36
    69    72   2623       1.33       0.86       0.35
    70    72   2695       1.33       0.87       0.35
    71    72   2767       1.33       0.87       0.35
    72    72   2839       1.33       0.97       0.27
    72    71   2838       1.33       0.94       0.30
    72    70   2837       1.33       0.94       0.30
    72    69   2836       1.33       0.94       0.30
    72    68   2835       1.33       0.93       0.30
    72    67   2834       1.33       0.92       0.31
    72    66   2833       1.33       0.92       0.31
    72    65   2832       1.33       0.93       0.30
    72    64   2831       1.33       0.93       0.30
    72    63   2830       1.33       0.93       0.30
    72    62   2829       1.33       0.93       0.30
    72    61   2828       1.33       0.93       0.30
    72    60   2827       1.33       0.93       0.30
    72    59   2826       1.33       0.93       0.30
    72    58   2825       1.33       0.93       0.30
    72    57   2824       1.33       0.93       0.30
    72    56   2823       1.33       0.93       0.30
    72    55   2822       1.33       0.93       0.30
    72    54   2821       1.33       0.93       0.30
    72    53   2820       1.33       0.93       0.30
    72    52   2819       1.33       0.93       0.30
    72    51   2818       1.33       0.93       0.30
    72    50   2817       1.33       0.93       0.30
    72    49   2816       1.33       0.93       0.30
    72    48   2815       1.33       0.93       0.30
    72    47   2814       1.33       0.93       0.30
    72    46   2813       1.33       0.93       0.30
    72    45   2812       1.33       0.93       0.30
    72    44   2811       1.33       0.94       0.30
    72    43   2810       1.33       0.94       0.30
    72    42   2809       1.33       0.94       0.30
    72    41   2808       1.33       0.93       0.30
    72    40   2807       1.33       0.93       0.30
    72    39   2806       1.33       0.93       0.30
    72    38   2805       1.33       0.93       0.30
    72    37   2804       1.33       0.93       0.30
    72    36   2803       1.33       0.93       0.30
    72    35   2802       1.33       0.93       0.30
    72    34   2801       1.33       0.93       0.30
    72    33   2800       1.33       0.93       0.30
    72    32   2799       1.33       0.93       0.30
    72    31   2798       1.33       0.93       0.30
    72    30   2797       1.33       0.93       0.30
    72    29   2796       1.33       0.94       0.30
    72    28   2795       1.33       0.94       0.30
    72    27   2794       1.33       0.94       0.30
    72    26   2793       1.33       0.94       0.30
    72    25   2792       1.33       0.94       0.30
    72    24   2791       1.33       0.94       0.30
    72    23   2790       1.33       0.94       0.30
    72    22   2789       1.33       0.94       0.30
    72    21   2788       1.33       0.94       0.30
    72    20   2787       1.33       0.94       0.30
    72    19   2786       1.33       0.94       0.30
    72    18   2785       1.33       0.94       0.30
    72    17   2784       1.33       0.94       0.29
    72    16   2783       1.33       0.94       0.29
    72    15   2782       1.33       0.94       0.29
    72    14   2781       1.33       0.94       0.29
    72    13   2780       1.33       0.94       0.29
    72    12   2779       1.33       0.95       0.29
    72    11   2778       1.33       0.95       0.29
    72    10   2777       1.33       0.95       0.28
    72     9   2776       1.33       0.96       0.28
    72     8   2775       1.33       0.96       0.28
    72     7   2774       1.33       0.97       0.27
    72     6   2773       1.33       0.99       0.26
    72     5   2772       1.33       1.01       0.24
    72     4   2771       1.33       1.04       0.22
    72     3   2770       1.33       1.08       0.19
    72     2   2769       1.33       1.17       0.12

 Time of computation ->  20250102.060000      in sec:     108000.
 not possible to compute, first iteration

  ** WARNING : Differences in wave height at the boundary
 Relative difference between input and computation >=   0.10
                         Hs[m]      Hs[m]      Hs[-]
     ix    iy  index   (input) (computed) (relative)
  --------------------------------------------------
    26    72      8       1.33       1.15       0.13
    27    72     17       1.33       0.81       0.39
    28    72     28       1.33       0.68       0.49
    29    72     43       1.33       0.64       0.52
    30    72     58       1.33       0.62       0.54
    31    72     86       1.33       0.61       0.54
    32    72    116       1.33       0.60       0.55
    33    72    162       1.33       0.60       0.55
    34    72    208       1.33       0.60       0.55
    35    72    256       1.33       0.60       0.55
    36    72    306       1.33       0.61       0.54
    37    72    359       1.33       0.61       0.54
    38    72    416       1.33       0.61       0.54
    39    72    474       1.33       0.61       0.54
    40    72    535       1.33       0.60       0.55
    41    72    607       1.33       0.60       0.55
    42    72    679       1.33       0.62       0.54
    43    72    751       1.33       0.64       0.52
    44    72    823       1.33       0.63       0.53
    45    72    895       1.33       0.62       0.53
    46    72    967       1.33       0.64       0.52
    47    72   1039       1.33       0.65       0.51
    48    72   1111       1.33       0.66       0.51
    49    72   1183       1.33       0.65       0.51
    50    72   1255       1.33       0.65       0.51
    51    72   1327       1.33       0.67       0.50
    52    72   1399       1.33       0.71       0.47
    53    72   1471       1.33       0.75       0.44
    54    72   1543       1.33       0.75       0.43
    55    72   1615       1.33       0.76       0.43
    56    72   1687       1.33       0.74       0.44
    57    72   1759       1.33       0.78       0.42
    58    72   1831       1.33       0.75       0.43
    59    72   1903       1.33       0.76       0.43
    60    72   1975       1.33       0.73       0.45
    61    72   2047       1.33       0.72       0.46
    62    72   2119       1.33       0.74       0.45
    63    72   2191       1.33       0.77       0.42
    64    72   2263       1.33       0.79       0.40
    65    72   2335       1.33       0.81       0.39
    66    72   2407       1.33       0.83       0.38
    67    72   2479       1.33       0.84       0.37
    68    72   2551       1.33       0.86       0.36
    69    72   2623       1.33       0.86       0.35
    70    72   2695       1.33       0.87       0.35
    71    72   2767       1.33       0.87       0.35
    72    72   2839       1.33       0.97       0.27
    72    71   2838       1.33       0.94       0.30
    72    70   2837       1.33       0.94       0.30
    72    69   2836       1.33       0.94       0.30
    72    68   2835       1.33       0.93       0.30
    72    67   2834       1.33       0.92       0.31
    72    66   2833       1.33       0.92       0.31
    72    65   2832       1.33       0.93       0.30
    72    64   2831       1.33       0.93       0.30
    72    63   2830       1.33       0.93       0.30
    72    62   2829       1.33       0.93       0.30
    72    61   2828       1.33       0.93       0.30
    72    60   2827       1.33       0.93       0.30
    72    59   2826       1.33       0.93       0.30
    72    58   2825       1.33       0.93       0.30
    72    57   2824       1.33       0.93       0.30
    72    56   2823       1.33       0.93       0.30
    72    55   2822       1.33       0.93       0.30
    72    54   2821       1.33       0.93       0.30
    72    53   2820       1.33       0.93       0.30
    72    52   2819       1.33       0.93       0.30
    72    51   2818       1.33       0.93       0.30
    72    50   2817       1.33       0.93       0.30
    72    49   2816       1.33       0.93       0.30
    72    48   2815       1.33       0.93       0.30
    72    47   2814       1.33       0.93       0.30
    72    46   2813       1.33       0.93       0.30
    72    45   2812       1.33       0.93       0.30
    72    44   2811       1.33       0.94       0.30
    72    43   2810       1.33       0.94       0.30
    72    42   2809       1.33       0.94       0.30
    72    41   2808       1.33       0.93       0.30
    72    40   2807       1.33       0.93       0.30
    72    39   2806       1.33       0.93       0.30
    72    38   2805       1.33       0.93       0.30
    72    37   2804       1.33       0.93       0.30
    72    36   2803       1.33       0.93       0.30
    72    35   2802       1.33       0.93       0.30
    72    34   2801       1.33       0.93       0.30
    72    33   2800       1.33       0.93       0.30
    72    32   2799       1.33       0.93       0.30
    72    31   2798       1.33       0.93       0.30
    72    30   2797       1.33       0.93       0.30
    72    29   2796       1.33       0.94       0.30
    72    28   2795       1.33       0.94       0.30
    72    27   2794       1.33       0.94       0.30
    72    26   2793       1.33       0.94       0.30
    72    25   2792       1.33       0.94       0.30
    72    24   2791       1.33       0.94       0.30
    72    23   2790       1.33       0.94       0.30
    72    22   2789       1.33       0.94       0.30
    72    21   2788       1.33       0.94       0.30
    72    20   2787       1.33       0.94       0.30
    72    19   2786       1.33       0.94       0.30
    72    18   2785       1.33       0.94       0.30
    72    17   2784       1.33       0.94       0.29
    72    16   2783       1.33       0.94       0.29
    72    15   2782       1.33       0.94       0.29
    72    14   2781       1.33       0.94       0.29
    72    13   2780       1.33       0.94       0.29
    72    12   2779       1.33       0.95       0.29
    72    11   2778       1.33       0.95       0.29
    72    10   2777       1.33       0.95       0.28
    72     9   2776       1.33       0.96       0.28
    72     8   2775       1.33       0.96       0.28
    72     7   2774       1.33       0.97       0.27
    72     6   2773       1.33       0.99       0.26
    72     5   2772       1.33       1.01       0.24
    72     4   2771       1.33       1.04       0.22
    72     3   2770       1.33       1.08       0.19
    72     2   2769       1.33       1.17       0.12

    
 STOP
