1

                    Execution started at 20251124.040015         



                    ---------------------------------------
                                     SWAN
                    SIMULATION OF WAVES IN NEAR SHORE AREAS
                             VERSION NUMBER 41.51               
                    ---------------------------------------


    
 $ SWAN INPUT: HIKKADUWA (7 DAY / 3 HR)
    
 PROJECT 'Hikkaduwa' '1'
    
 MODE NONSTATIONARY
    
 COORDINATES SPHERICAL
    
 
    
 $ 1. GRID
    
 CGRID REGULAR 79.952083 5.952083 0.0 0.1958 0.1958 47 47 CIRCLE 36 0.05 1.0 24
 Resolution in sigma-space: df/f =  0.1329
    
 INPGRID BOTTOM 79.952083 5.952083 0.0 47 47 0.004167 0.004167 EXC -99
    
 READGRID BOTTOM 1 'hikkaduwa.bot' 1 0 FREE
    
 
    
 $ 2. BOUNDARIES
    
 BOUND SHAPE JONSWAP 3.3 PEAK DSPR DEGREES
    
 BOUNDSPEC SIDE SOUTH CONSTANT FILE 'hikkaduwa_boundary.bnd'
    
 BOUNDSPEC SIDE WEST CONSTANT FILE 'hikkaduwa_boundary_copy.bnd'
    
 
    
 $ 3. PHYSICS
    
 BREAKING CON 1.0 0.73
    
 FRICTION JONSWAP CONSTANT 0.067
    
 OFF WCAP
    
 OFF QUAD
    
 
    
 $ 4. NUMERICS
    
 PROP BSBT
    
 NUMERIC STOPC 0.005 0.005 0.005 95. STAT 15
    
 
    
 $ 5. OUTPUT
    
 POINTS 'DEEP' 80.0000 6.0000
    
 POINTS 'MID'  80.0500 6.0600
    
 POINTS 'SURF' 80.0900 6.1200
    
 
    
 $ CHANGE: Output every 3 Hours now
    
 TABLE 'DEEP' HEAD 'deep_forecast.tbl' HS TPS DIR DEPTH QB OUTPUT 20251124.0 3 HR
    
 TABLE 'MID'  HEAD 'mid_forecast.tbl'  HS TPS DIR DEPTH QB OUTPUT 20251124.0 3 HR
    
 TABLE 'SURF' HEAD 'surf_forecast.tbl' HS TPS DIR DEPTH QB OUTPUT 20251124.0 3 HR
    
 
    
 $ 6. RUN
    
 COMPUTE 20251124.0 15 MIN 20251130.1800
 ** Warning          : Limiter is de-activated in case of no quadruplets
 Boundary data type TPAR processed, time:           0.
 Boundary data type TPAR processed, time:           0.
 Time of computation ->  20251124.001500      in sec:        900.
 Boundary data type TPAR processed, time:       21600.
 Boundary data type TPAR processed, time:       21600.

----------------------------------------------------------------
                  COMPUTATIONAL PART OF SWAN
----------------------------------------------------------------

 Gridresolution       : MXC              48 MYC             48
                      : MCGRD          2132
                      : MSC              25 MDC             36
                      : MTC             648
                      : NSTATC            1 ITERMX           1
 Propagation flags    : ITFRE             1 IREFR            1
 Source term flags    : IBOT              1 ISURF            1
                      : IWCAP             0 IWIND            0
                      : ITRIAD            0 IQUAD            0
                      : IBRAG             0 IQCM             0
                      : IVEG              0 ITURBV           0
                      : IMUD              0 IICE             0
 Spatial step         : DX       0.4166E-02 DY      0.4166E-02
 Spectral bin         : df/f     0.1329E+00 DDIR    0.1000E+02
 Physical constants   : GRAV     0.9810E+01 RHO     0.1025E+04
 Wind input           : WSPEED   0.0000E+00 DIR     0.0000E+00
                      : ICEWIND  0.00
 Tail parameters      : E(f)     0.4000E+01 E(k)    0.2500E+01
                      : A(f)     0.5000E+01 A(k)    0.3000E+01
 Accuracy parameters  : DREL     0.5000E-02 NPNTS   0.9500E+02
                      : DHABS    0.5000E-02 CURVAT  0.5000E-02
                      : GRWMX    0.1000E+21
 Drying/flooding      : LEVEL    0.0000E+00 DEPMIN  0.5000E-01
 The Cartesian convention for wind and wave directions is used
 Scheme for geographic propagation is BSBT  
 Scheme geogr. space  : PROPSC            1 ICMAX            5
 Scheme spectral space: CSS      0.5000E+00 CDD     0.5000E+00
 Current is off
 Quadruplets is off
 Triads is off
 Bragg scattering is off
 QC scattering is off
 Surfbeat (IEM) is off
 JONSWAP (`73)        : GAMMA    0.6700E-01
 Vegetation is off
 Turbulence is off
 Fluid mud is off
 Dissipation by sea ice is off
 Whitecapping is off
 Battjes&Janssen (`78): ALPHA    0.1000E+01 GAMMA   0.7300E+00
 Set-up is off
 Diffraction is off
 Janssen (`89,`90)    : ALPHA    0.1000E-01 KAPPA   0.4100E+00
 Janssen (`89,`90)    : RHOA     0.1280E+01 RHOW    0.1025E+04

 1st and 2nd gen. wind: CF10     0.1880E+03 CF20    0.5900E+00
                      : CF30     0.1200E+00 CF40    0.2500E+03
                      : CF50     0.2300E-02 CF60   -0.2230E+00
                      : CF70     0.0000E+00 CF80   -0.5600E+00
                      : RHOAW    0.1249E-02 EDMLPM  0.3600E-02
                      : CDRAG    0.1230E-02 UMIN    0.1000E+01
                      : LIM_PM   0.1300E+00

 not possible to compute, first iteration

  ** WARNING : Differences in wave height at the boundary
 Relative difference between input and computation >=   0.10
                         Hs[m]      Hs[m]      Hs[-]
     ix    iy  index   (input) (computed) (relative)
  --------------------------------------------------
     1    48     49       1.33       1.13       0.16
     1    47     48       1.33       0.76       0.43
     1    46     47       1.33       0.62       0.53
     1    45     46       1.33       0.56       0.58
     1    44     45       1.33       0.53       0.60
     1    43     44       1.33       0.52       0.61
     1    42     43       1.33       0.51       0.62
     1    41     42       1.33       0.51       0.62
     1    40     41       1.33       0.50       0.62
     1    39     40       1.33       0.50       0.63
     1    38     39       1.33       0.50       0.63
     1    37     38       1.33       0.50       0.63
     1    36     37       1.33       0.50       0.63
     1    35     36       1.33       0.50       0.63
     1    34     35       1.33       0.50       0.63
     1    33     34       1.33       0.50       0.63
     1    32     33       1.33       0.50       0.63
     1    31     32       1.33       0.50       0.63
     1    30     31       1.33       0.50       0.63
     1    29     30       1.33       0.50       0.63
     1    28     29       1.33       0.50       0.63
     1    27     28       1.33       0.50       0.63
     1    26     27       1.33       0.50       0.63
     1    25     26       1.33       0.50       0.63
     1    24     25       1.33       0.50       0.63
     1    23     24       1.33       0.50       0.63
     1    22     23       1.33       0.50       0.62
     1    21     22       1.33       0.50       0.62
     1    20     21       1.33       0.50       0.62
     1    19     20       1.33       0.50       0.62
     1    18     19       1.33       0.51       0.62
     1    17     18       1.33       0.51       0.62
     1    16     17       1.33       0.51       0.62
     1    15     16       1.33       0.51       0.62
     1    14     15       1.33       0.52       0.61
     1    13     14       1.33       0.52       0.61
     1    12     13       1.33       0.53       0.61
     1    11     12       1.33       0.53       0.60
     1    10     11       1.33       0.54       0.59
     1     9     10       1.33       0.55       0.59
     1     8      9       1.33       0.56       0.58
     1     7      8       1.33       0.58       0.56
     1     6      7       1.33       0.60       0.55
     1     5      6       1.33       0.63       0.53
     1     4      5       1.33       0.66       0.50
     1     3      4       1.33       0.71       0.47
     1     2      3       1.33       0.78       0.41
     1     1      2       1.33       0.98       0.26
     2     1     50       1.33       0.95       0.29
     3     1     98       1.33       0.95       0.29
     4     1    146       1.33       0.95       0.29
     5     1    194       1.33       0.95       0.29
     6     1    242       1.33       0.95       0.29
     7     1    290       1.33       0.95       0.29
     8     1    338       1.33       0.95       0.29
     9     1    386       1.33       0.95       0.29
    10     1    434       1.33       0.95       0.29
    11     1    482       1.33       0.95       0.29
    12     1    530       1.33       0.95       0.29
    13     1    578       1.33       0.95       0.29
    14     1    626       1.33       0.95       0.29
    15     1    674       1.33       0.95       0.29
    16     1    722       1.33       0.95       0.29
    17     1    770       1.33       0.95       0.29
    18     1    818       1.33       0.95       0.29
    19     1    866       1.33       0.96       0.28
    20     1    914       1.33       0.96       0.28
    21     1    962       1.33       0.96       0.28
    22     1   1010       1.33       0.97       0.28
    23     1   1058       1.33       0.97       0.27
    24     1   1106       1.33       0.97       0.27
    25     1   1154       1.33       0.99       0.26
    26     1   1202       1.33       1.03       0.23
    28     1   1298       1.33       0.77       0.43
    29     1   1346       1.33       0.77       0.43
    30     1   1394       1.33       0.77       0.43
    31     1   1442       1.33       0.77       0.43
    32     1   1490       1.33       0.78       0.42

 Time of computation ->  20251124.003000      in sec:       1800.
 not possible to compute, first iteration

  ** WARNING : Differences in wave height at the boundary
 Relative difference between input and computation >=   0.10
                         Hs[m]      Hs[m]      Hs[-]
     ix    iy  index   (input) (computed) (relative)
  --------------------------------------------------
     1    48     49       1.34       1.14       0.16
     1    47     48       1.34       0.77       0.43
     1    46     47       1.34       0.63       0.53
     1    45     46       1.34       0.57       0.58
     1    44     45       1.34       0.54       0.60
     1    43     44       1.34       0.52       0.61
     1    42     43       1.34       0.51       0.62
     1    41     42       1.34       0.51       0.62
     1    40     41       1.34       0.51       0.62
     1    39     40       1.34       0.50       0.62
     1    38     39       1.34       0.50       0.63
     1    37     38       1.34       0.50       0.63
     1    36     37       1.34       0.50       0.63
     1    35     36       1.34       0.50       0.63
     1    34     35       1.34       0.50       0.63
     1    33     34       1.34       0.50       0.63
     1    32     33       1.34       0.50       0.63
     1    31     32       1.34       0.50       0.63
     1    30     31       1.34       0.50       0.62
     1    29     30       1.34       0.50       0.62
     1    28     29       1.34       0.51       0.62
     1    27     28       1.34       0.51       0.62
     1    26     27       1.34       0.51       0.62
     1    25     26       1.34       0.51       0.62
     1    24     25       1.34       0.51       0.62
     1    23     24       1.34       0.51       0.62
     1    22     23       1.34       0.51       0.62
     1    21     22       1.34       0.52       0.62
     1    20     21       1.34       0.52       0.61
     1    19     20       1.34       0.52       0.61
     1    18     19       1.34       0.53       0.61
     1    17     18       1.34       0.53       0.60
     1    16     17       1.34       0.54       0.60
     1    15     16       1.34       0.55       0.59
     1    14     15       1.34       0.55       0.59
     1    13     14       1.34       0.56       0.58
     1    12     13       1.34       0.57       0.57
     1    11     12       1.34       0.59       0.56
     1    10     11       1.34       0.60       0.55
     1     9     10       1.34       0.62       0.54
     1     8      9       1.34       0.64       0.53
     1     7      8       1.34       0.66       0.51
     1     6      7       1.34       0.68       0.49
     1     5      6       1.34       0.71       0.47
     1     4      5       1.34       0.75       0.44
     1     3      4       1.34       0.79       0.41
     1     2      3       1.34       0.84       0.38
     1     1      2       1.34       0.99       0.26
     2     1     50       1.34       0.95       0.29
     3     1     98       1.34       0.95       0.29
     4     1    146       1.34       0.95       0.29
     5     1    194       1.34       0.95       0.29
     6     1    242       1.34       0.95       0.29
     7     1    290       1.34       0.95       0.29
     8     1    338       1.34       0.96       0.29
     9     1    386       1.34       0.96       0.29
    10     1    434       1.34       0.96       0.29
    11     1    482       1.34       0.96       0.29
    12     1    530       1.34       0.96       0.29
    13     1    578       1.34       0.96       0.29
    14     1    626       1.34       0.96       0.29
    15     1    674       1.34       0.96       0.29
    16     1    722       1.34       0.96       0.29
    17     1    770       1.34       0.96       0.28
    18     1    818       1.34       0.96       0.28
    19     1    866       1.34       0.97       0.28
    20     1    914       1.34       0.97       0.28
    21     1    962       1.34       0.97       0.28
    22     1   1010       1.34       0.98       0.27
    23     1   1058       1.34       0.98       0.27
    24     1   1106       1.34       0.98       0.27
    25     1   1154       1.34       1.00       0.26
    26     1   1202       1.34       1.04       0.22
    28     1   1298       1.34       0.77       0.43
    29     1   1346       1.34       0.77       0.43
    30     1   1394       1.34       0.77       0.43
    31     1   1442       1.34       0.77       0.43
    32     1   1490       1.34       0.78       0.42

 Time of computation ->  20251124.004500      in sec:       2700.
 not possible to compute, first iteration

  ** WARNING : Differences in wave height at the boundary
 Relative difference between input and computation >=   0.10
                         Hs[m]      Hs[m]      Hs[-]
     ix    iy  index   (input) (computed) (relative)
  --------------------------------------------------
     1    48     49       1.35       1.14       0.16
     1    47     48       1.35       0.77       0.43
     1    46     47       1.35       0.63       0.53
     1    45     46       1.35       0.57       0.58
     1    44     45       1.35       0.54       0.60
     1    43     44       1.35       0.53       0.61
     1    42     43       1.35       0.52       0.62
     1    41     42       1.35       0.51       0.62
     1    40     41       1.35       0.51       0.62
     1    39     40       1.35       0.51       0.62
     1    38     39       1.35       0.51       0.62
     1    37     38       1.35       0.51       0.62
     1    36     37       1.35       0.51       0.62
     1    35     36       1.35       0.51       0.62
     1    34     35       1.35       0.51       0.62
     1    33     34       1.35       0.51       0.62
     1    32     33       1.35       0.51       0.62
     1    31     32       1.35       0.51       0.62
     1    30     31       1.35       0.51       0.62
     1    29     30       1.35       0.51       0.62
     1    28     29       1.35       0.52       0.62
     1    27     28       1.35       0.52       0.62
     1    26     27       1.35       0.52       0.62
     1    25     26       1.35       0.52       0.61
     1    24     25       1.35       0.53       0.61
     1    23     24       1.35       0.53       0.61
     1    22     23       1.35       0.53       0.61
     1    21     22       1.35       0.54       0.60
     1    20     21       1.35       0.54       0.60
     1    19     20       1.35       0.55       0.60
     1    18     19       1.35       0.55       0.59
     1    17     18       1.35       0.56       0.59
     1    16     17       1.35       0.57       0.58
     1    15     16       1.35       0.58       0.57
     1    14     15       1.35       0.59       0.56
     1    13     14       1.35       0.60       0.56
     1    12     13       1.35       0.62       0.55
     1    11     12       1.35       0.63       0.53
     1    10     11       1.35       0.65       0.52
     1     9     10       1.35       0.67       0.51
     1     8      9       1.35       0.69       0.49
     1     7      8       1.35       0.71       0.48
     1     6      7       1.35       0.73       0.46
     1     5      6       1.35       0.76       0.44
     1     4      5       1.35       0.79       0.42
     1     3      4       1.35       0.83       0.39
     1     2      3       1.35       0.86       0.36
     1     1      2       1.35       1.00       0.26
     2     1     50       1.35       0.96       0.29
     3     1     98       1.35       0.96       0.29
     4     1    146       1.35       0.96       0.29
     5     1    194       1.35       0.96       0.29
     6     1    242       1.35       0.96       0.29
     7     1    290       1.35       0.96       0.29
     8     1    338       1.35       0.96       0.29
     9     1    386       1.35       0.96       0.29
    10     1    434       1.35       0.96       0.29
    11     1    482       1.35       0.96       0.29
    12     1    530       1.35       0.96       0.29
    13     1    578       1.35       0.97       0.29
    14     1    626       1.35       0.97       0.29
    15     1    674       1.35       0.97       0.29
    16     1    722       1.35       0.97       0.29
    17     1    770       1.35       0.97       0.28
    18     1    818       1.35       0.97       0.28
    19     1    866       1.35       0.97       0.28
    20     1    914       1.35       0.98       0.28
    21     1    962       1.35       0.98       0.28
    22     1   1010       1.35       0.99       0.27
    23     1   1058       1.35       0.99       0.27
    24     1   1106       1.35       0.99       0.27
    25     1   1154       1.35       1.00       0.26
    26     1   1202       1.35       1.05       0.22
    28     1   1298       1.35       0.78       0.43
    29     1   1346       1.35       0.78       0.43
    30     1   1394       1.35       0.78       0.43
    31     1   1442       1.35       0.78       0.43
    32     1   1490       1.35       0.79       0.42

 Time of computation ->  20251124.010000      in sec:       3600.
 not possible to compute, first iteration

  ** WARNING : Differences in wave height at the boundary
 Relative difference between input and computation >=   0.10
                         Hs[m]      Hs[m]      Hs[-]
     ix    iy  index   (input) (computed) (relative)
  --------------------------------------------------
     1    48     49       1.36       1.15       0.16
     1    47     48       1.36       0.78       0.43
     1    46     47       1.36       0.64       0.53
     1    45     46       1.36       0.58       0.58
     1    44     45       1.36       0.55       0.60
     1    43     44       1.36       0.53       0.61
     1    42     43       1.36       0.52       0.62
     1    41     42       1.36       0.52       0.62
     1    40     41       1.36       0.52       0.62
     1    39     40       1.36       0.52       0.62
     1    38     39       1.36       0.52       0.62
     1    37     38       1.36       0.52       0.62
     1    36     37       1.36       0.52       0.62
     1    35     36       1.36       0.52       0.62
     1    34     35       1.36       0.52       0.62
     1    33     34       1.36       0.52       0.62
     1    32     33       1.36       0.52       0.62
     1    31     32       1.36       0.52       0.62
     1    30     31       1.36       0.52       0.62
     1    29     30       1.36       0.52       0.62
     1    28     29       1.36       0.53       0.61
     1    27     28       1.36       0.53       0.61
     1    26     27       1.36       0.53       0.61
     1    25     26       1.36       0.54       0.61
     1    24     25       1.36       0.54       0.60
     1    23     24       1.36       0.54       0.60
     1    22     23       1.36       0.55       0.60
     1    21     22       1.36       0.55       0.59
     1    20     21       1.36       0.56       0.59
     1    19     20       1.36       0.57       0.58
     1    18     19       1.36       0.58       0.58
     1    17     18       1.36       0.58       0.57
     1    16     17       1.36       0.59       0.56
     1    15     16       1.36       0.61       0.56
     1    14     15       1.36       0.62       0.55
     1    13     14       1.36       0.63       0.54
     1    12     13       1.36       0.65       0.53
     1    11     12       1.36       0.66       0.52
     1    10     11       1.36       0.68       0.50
     1     9     10       1.36       0.70       0.49
     1     8      9       1.36       0.72       0.47
     1     7      8       1.36       0.74       0.46
     1     6      7       1.36       0.76       0.44
     1     5      6       1.36       0.78       0.42
     1     4      5       1.36       0.81       0.40
     1     3      4       1.36       0.85       0.38
     1     2      3       1.36       0.88       0.36
     1     1      2       1.36       1.01       0.26
     2     1     50       1.36       0.97       0.29
     3     1     98       1.36       0.97       0.29
     4     1    146       1.36       0.97       0.29
     5     1    194       1.36       0.97       0.29
     6     1    242       1.36       0.97       0.29
     7     1    290       1.36       0.97       0.29
     8     1    338       1.36       0.97       0.29
     9     1    386       1.36       0.97       0.29
    10     1    434       1.36       0.97       0.29
    11     1    482       1.36       0.97       0.29
    12     1    530       1.36       0.97       0.29
    13     1    578       1.36       0.97       0.29
    14     1    626       1.36       0.97       0.29
    15     1    674       1.36       0.97       0.29
    16     1    722       1.36       0.98       0.28
    17     1    770       1.36       0.98       0.28
    18     1    818       1.36       0.98       0.28
    19     1    866       1.36       0.98       0.28
    20     1    914       1.36       0.98       0.28
    21     1    962       1.36       0.99       0.28
    22     1   1010       1.36       0.99       0.27
    23     1   1058       1.36       1.00       0.27
    24     1   1106       1.36       1.00       0.27
    25     1   1154       1.36       1.01       0.26
    26     1   1202       1.36       1.06       0.22
    28     1   1298       1.36       0.78       0.43
    29     1   1346       1.36       0.78       0.43
    30     1   1394       1.36       0.78       0.43
    31     1   1442       1.36       0.78       0.43
    32     1   1490       1.36       0.79       0.42

 Time of computation ->  20251124.011500      in sec:       4500.
 not possible to compute, first iteration

  ** WARNING : Differences in wave height at the boundary
 Relative difference between input and computation >=   0.10
                         Hs[m]      Hs[m]      Hs[-]
     ix    iy  index   (input) (computed) (relative)
  --------------------------------------------------
     1    48     49       1.37       1.16       0.15
     1    47     48       1.37       0.78       0.43
     1    46     47       1.37       0.64       0.53
     1    45     46       1.37       0.58       0.58
     1    44     45       1.37       0.55       0.60
     1    43     44       1.37       0.54       0.61
     1    42     43       1.37       0.53       0.61
     1    41     42       1.37       0.52       0.62
     1    40     41       1.37       0.52       0.62
     1    39     40       1.37       0.52       0.62
     1    38     39       1.37       0.52       0.62
     1    37     38       1.37       0.52       0.62
     1    36     37       1.37       0.52       0.62
     1    35     36       1.37       0.52       0.62
     1    34     35       1.37       0.52       0.62
     1    33     34       1.37       0.53       0.62
     1    32     33       1.37       0.53       0.62
     1    31     32       1.37       0.53       0.61
     1    30     31       1.37       0.53       0.61
     1    29     30       1.37       0.53       0.61
     1    28     29       1.37       0.54       0.61
     1    27     28       1.37       0.54       0.61
     1    26     27       1.37       0.54       0.60
     1    25     26       1.37       0.55       0.60
     1    24     25       1.37       0.55       0.60
     1    23     24       1.37       0.56       0.59
     1    22     23       1.37       0.56       0.59
     1    21     22       1.37       0.57       0.59
     1    20     21       1.37       0.58       0.58
     1    19     20       1.37       0.58       0.57
     1    18     19       1.37       0.59       0.57
     1    17     18       1.37       0.60       0.56
     1    16     17       1.37       0.61       0.55
     1    15     16       1.37       0.62       0.55
     1    14     15       1.37       0.64       0.54
     1    13     14       1.37       0.65       0.53
     1    12     13       1.37       0.66       0.52
     1    11     12       1.37       0.68       0.50
     1    10     11       1.37       0.70       0.49
     1     9     10       1.37       0.72       0.48
     1     8      9       1.37       0.73       0.46
     1     7      8       1.37       0.75       0.45
     1     6      7       1.37       0.78       0.43
     1     5      6       1.37       0.80       0.42
     1     4      5       1.37       0.83       0.40
     1     3      4       1.37       0.86       0.38
     1     2      3       1.37       0.89       0.35
     1     1      2       1.37       1.01       0.26
     2     1     50       1.37       0.98       0.29
     3     1     98       1.37       0.98       0.29
     4     1    146       1.37       0.98       0.29
     5     1    194       1.37       0.98       0.29
     6     1    242       1.37       0.98       0.29
     7     1    290       1.37       0.98       0.29
     8     1    338       1.37       0.98       0.29
     9     1    386       1.37       0.98       0.29
    10     1    434       1.37       0.98       0.29
    11     1    482       1.37       0.98       0.29
    12     1    530       1.37       0.98       0.29
    13     1    578       1.37       0.98       0.29
    14     1    626       1.37       0.98       0.29
    15     1    674       1.37       0.98       0.29
    16     1    722       1.37       0.98       0.28
    17     1    770       1.37       0.98       0.28
    18     1    818       1.37       0.99       0.28
    19     1    866       1.37       0.99       0.28
    20     1    914       1.37       0.99       0.28
    21     1    962       1.37       0.99       0.28
    22     1   1010       1.37       1.00       0.27
    23     1   1058       1.37       1.00       0.27
    24     1   1106       1.37       1.00       0.27
    25     1   1154       1.37       1.02       0.26
    26     1   1202       1.37       1.07       0.22
    28     1   1298       1.37       0.79       0.43
    29     1   1346       1.37       0.79       0.43
    30     1   1394       1.37       0.79       0.43
    31     1   1442       1.37       0.79       0.43
    32     1   1490       1.37       0.80       0.42

 Time of computation ->  20251124.013000      in sec:       5400.
 not possible to compute, first iteration

  ** WARNING : Differences in wave height at the boundary
 Relative difference between input and computation >=   0.10
                         Hs[m]      Hs[m]      Hs[-]
     ix    iy  index   (input) (computed) (relative)
  --------------------------------------------------
     1    48     49       1.38       1.17       0.15
     1    47     48       1.38       0.79       0.43
     1    46     47       1.38       0.65       0.53
     1    45     46       1.38       0.59       0.58
     1    44     45       1.38       0.56       0.60
     1    43     44       1.38       0.54       0.61
     1    42     43       1.38       0.53       0.61
     1    41     42       1.38       0.53       0.62
     1    40     41       1.38       0.53       0.62
     1    39     40       1.38       0.53       0.62
     1    38     39       1.38       0.53       0.62
     1    37     38       1.38       0.53       0.62
     1    36     37       1.38       0.53       0.62
     1    35     36       1.38       0.53       0.62
     1    34     35       1.38       0.53       0.62
     1    33     34       1.38       0.53       0.62
     1    32     33       1.38       0.53       0.61
     1    31     32       1.38       0.54       0.61
     1    30     31       1.38       0.54       0.61
     1    29     30       1.38       0.54       0.61
     1    28     29       1.38       0.54       0.61
     1    27     28       1.38       0.55       0.60
     1    26     27       1.38       0.55       0.60
     1    25     26       1.38       0.56       0.60
     1    24     25       1.38       0.56       0.59
     1    23     24       1.38       0.57       0.59
     1    22     23       1.38       0.57       0.59
     1    21     22       1.38       0.58       0.58
     1    20     21       1.38       0.59       0.58
     1    19     20       1.38       0.60       0.57
     1    18     19       1.38       0.60       0.56
     1    17     18       1.38       0.61       0.56
     1    16     17       1.38       0.63       0.55
     1    15     16       1.38       0.64       0.54
     1    14     15       1.38       0.65       0.53
     1    13     14       1.38       0.66       0.52
     1    12     13       1.38       0.68       0.51
     1    11     12       1.38       0.69       0.50
     1    10     11       1.38       0.71       0.49
     1     9     10       1.38       0.73       0.47
     1     8      9       1.38       0.75       0.46
     1     7      8       1.38       0.77       0.45
     1     6      7       1.38       0.79       0.43
     1     5      6       1.38       0.81       0.41
     1     4      5       1.38       0.84       0.39
     1     3      4       1.38       0.87       0.37
     1     2      3       1.38       0.89       0.35
     1     1      2       1.38       1.02       0.26
     2     1     50       1.38       0.98       0.29
     3     1     98       1.38       0.98       0.29
     4     1    146       1.38       0.98       0.29
     5     1    194       1.38       0.98       0.29
     6     1    242       1.38       0.98       0.29
     7     1    290       1.38       0.98       0.29
     8     1    338       1.38       0.98       0.29
     9     1    386       1.38       0.98       0.29
    10     1    434       1.38       0.99       0.29
    11     1    482       1.38       0.99       0.29
    12     1    530       1.38       0.99       0.29
    13     1    578       1.38       0.99       0.29
    14     1    626       1.38       0.99       0.29
    15     1    674       1.38       0.99       0.29
    16     1    722       1.38       0.99       0.28
    17     1    770       1.38       0.99       0.28
    18     1    818       1.38       0.99       0.28
    19     1    866       1.38       0.99       0.28
    20     1    914       1.38       1.00       0.28
    21     1    962       1.38       1.00       0.28
    22     1   1010       1.38       1.01       0.27
    23     1   1058       1.38       1.01       0.27
    24     1   1106       1.38       1.01       0.27
    25     1   1154       1.38       1.02       0.26
    26     1   1202       1.38       1.07       0.22
    28     1   1298       1.38       0.79       0.43
    29     1   1346       1.38       0.79       0.43
    30     1   1394       1.38       0.79       0.43
    31     1   1442       1.38       0.79       0.43
    32     1   1490       1.38       0.80       0.42

 Time of computation ->  20251124.014500      in sec:       6300.
 not possible to compute, first iteration

  ** WARNING : Differences in wave height at the boundary
 Relative difference between input and computation >=   0.10
                         Hs[m]      Hs[m]      Hs[-]
     ix    iy  index   (input) (computed) (relative)
  --------------------------------------------------
     1    48     49       1.39       1.18       0.15
     1    47     48       1.39       0.80       0.43
     1    46     47       1.39       0.65       0.53
     1    45     46       1.39       0.59       0.58
     1    44     45       1.39       0.56       0.60
     1    43     44       1.39       0.55       0.61
     1    42     43       1.39       0.54       0.61
     1    41     42       1.39       0.54       0.62
     1    40     41       1.39       0.53       0.62
     1    39     40       1.39       0.53       0.62
     1    38     39       1.39       0.53       0.62
     1    37     38       1.39       0.53       0.62
     1    36     37       1.39       0.53       0.62
     1    35     36       1.39       0.54       0.62
     1    34     35       1.39       0.54       0.61
     1    33     34       1.39       0.54       0.61
     1    32     33       1.39       0.54       0.61
     1    31     32       1.39       0.54       0.61
     1    30     31       1.39       0.55       0.61
     1    29     30       1.39       0.55       0.61
     1    28     29       1.39       0.55       0.60
     1    27     28       1.39       0.56       0.60
     1    26     27       1.39       0.56       0.60
     1    25     26       1.39       0.56       0.59
     1    24     25       1.39       0.57       0.59
     1    23     24       1.39       0.58       0.59
     1    22     23       1.39       0.58       0.58
     1    21     22       1.39       0.59       0.58
     1    20     21       1.39       0.60       0.57
     1    19     20       1.39       0.60       0.57
     1    18     19       1.39       0.61       0.56
     1    17     18       1.39       0.62       0.55
     1    16     17       1.39       0.63       0.54
     1    15     16       1.39       0.65       0.54
     1    14     15       1.39       0.66       0.53
     1    13     14       1.39       0.67       0.52
     1    12     13       1.39       0.69       0.51
     1    11     12       1.39       0.70       0.50
     1    10     11       1.39       0.72       0.48
     1     9     10       1.39       0.74       0.47
     1     8      9       1.39       0.76       0.46
     1     7      8       1.39       0.77       0.44
     1     6      7       1.39       0.80       0.43
     1     5      6       1.39       0.82       0.41
     1     4      5       1.39       0.85       0.39
     1     3      4       1.39       0.87       0.37
     1     2      3       1.39       0.90       0.35
     1     1      2       1.39       1.03       0.26
     2     1     50       1.39       0.99       0.29
     3     1     98       1.39       0.99       0.29
     4     1    146       1.39       0.99       0.29
     5     1    194       1.39       0.99       0.29
     6     1    242       1.39       0.99       0.29
     7     1    290       1.39       0.99       0.29
     8     1    338       1.39       0.99       0.29
     9     1    386       1.39       0.99       0.29
    10     1    434       1.39       0.99       0.29
    11     1    482       1.39       0.99       0.29
    12     1    530       1.39       0.99       0.29
    13     1    578       1.39       0.99       0.29
    14     1    626       1.39       0.99       0.29
    15     1    674       1.39       1.00       0.29
    16     1    722       1.39       1.00       0.28
    17     1    770       1.39       1.00       0.28
    18     1    818       1.39       1.00       0.28
    19     1    866       1.39       1.00       0.28
    20     1    914       1.39       1.00       0.28
    21     1    962       1.39       1.01       0.28
    22     1   1010       1.39       1.01       0.27
    23     1   1058       1.39       1.02       0.27
    24     1   1106       1.39       1.02       0.27
    25     1   1154       1.39       1.03       0.26
    26     1   1202       1.39       1.08       0.22
    28     1   1298       1.39       0.80       0.43
    29     1   1346       1.39       0.80       0.43
    30     1   1394       1.39       0.80       0.43
    31     1   1442       1.39       0.80       0.43
    32     1   1490       1.39       0.81       0.42

 Time of computation ->  20251124.020000      in sec:       7200.
 not possible to compute, first iteration

  ** WARNING : Differences in wave height at the boundary
 Relative difference between input and computation >=   0.10
                         Hs[m]      Hs[m]      Hs[-]
     ix    iy  index   (input) (computed) (relative)
  --------------------------------------------------
     1    48     49       1.40       1.19       0.15
     1    47     48       1.40       0.80       0.43
     1    46     47       1.40       0.66       0.53
     1    45     46       1.40       0.60       0.57
     1    44     45       1.40       0.57       0.60
     1    43     44       1.40       0.55       0.61
     1    42     43       1.40       0.54       0.61
     1    41     42       1.40       0.54       0.61
     1    40     41       1.40       0.54       0.62
     1    39     40       1.40       0.54       0.62
     1    38     39       1.40       0.54       0.62
     1    37     38       1.40       0.54       0.62
     1    36     37       1.40       0.54       0.62
     1    35     36       1.40       0.54       0.61
     1    34     35       1.40       0.54       0.61
     1    33     34       1.40       0.54       0.61
     1    32     33       1.40       0.55       0.61
     1    31     32       1.40       0.55       0.61
     1    30     31       1.40       0.55       0.61
     1    29     30       1.40       0.55       0.60
     1    28     29       1.40       0.56       0.60
     1    27     28       1.40       0.56       0.60
     1    26     27       1.40       0.57       0.60
     1    25     26       1.40       0.57       0.59
     1    24     25       1.40       0.58       0.59
     1    23     24       1.40       0.58       0.59
     1    22     23       1.40       0.59       0.58
     1    21     22       1.40       0.59       0.58
     1    20     21       1.40       0.60       0.57
     1    19     20       1.40       0.61       0.56
     1    18     19       1.40       0.62       0.56
     1    17     18       1.40       0.63       0.55
     1    16     17       1.40       0.64       0.54
     1    15     16       1.40       0.65       0.53
     1    14     15       1.40       0.67       0.53
     1    13     14       1.40       0.68       0.52
     1    12     13       1.40       0.69       0.51
     1    11     12       1.40       0.71       0.49
     1    10     11       1.40       0.73       0.48
     1     9     10       1.40       0.74       0.47
     1     8      9       1.40       0.76       0.46
     1     7      8       1.40       0.78       0.44
     1     6      7       1.40       0.80       0.43
     1     5      6       1.40       0.82       0.41
     1     4      5       1.40       0.85       0.39
     1     3      4       1.40       0.88       0.37
     1     2      3       1.40       0.91       0.35
     1     1      2       1.40       1.04       0.26
     2     1     50       1.40       1.00       0.29
     3     1     98       1.40       1.00       0.29
     4     1    146       1.40       1.00       0.29
     5     1    194       1.40       1.00       0.29
     6     1    242       1.40       1.00       0.29
     7     1    290       1.40       1.00       0.29
     8     1    338       1.40       1.00       0.29
     9     1    386       1.40       1.00       0.29
    10     1    434       1.40       1.00       0.29
    11     1    482       1.40       1.00       0.29
    12     1    530       1.40       1.00       0.29
    13     1    578       1.40       1.00       0.29
    14     1    626       1.40       1.00       0.29
    15     1    674       1.40       1.00       0.29
    16     1    722       1.40       1.00       0.28
    17     1    770       1.40       1.00       0.28
    18     1    818       1.40       1.01       0.28
    19     1    866       1.40       1.01       0.28
    20     1    914       1.40       1.01       0.28
    21     1    962       1.40       1.01       0.28
    22     1   1010       1.40       1.02       0.27
    23     1   1058       1.40       1.02       0.27
    24     1   1106       1.40       1.02       0.27
    25     1   1154       1.40       1.04       0.26
    26     1   1202       1.40       1.09       0.22
    28     1   1298       1.40       0.80       0.43
    29     1   1346       1.40       0.80       0.43
    30     1   1394       1.40       0.80       0.43
    31     1   1442       1.40       0.80       0.43
    32     1   1490       1.40       0.81       0.42

 Time of computation ->  20251124.021500      in sec:       8100.
 not possible to compute, first iteration

  ** WARNING : Differences in wave height at the boundary
 Relative difference between input and computation >=   0.10
                         Hs[m]      Hs[m]      Hs[-]
     ix    iy  index   (input) (computed) (relative)
  --------------------------------------------------
     1    48     49       1.41       1.19       0.15
     1    47     48       1.41       0.81       0.43
     1    46     47       1.41       0.66       0.53
     1    45     46       1.41       0.60       0.57
     1    44     45       1.41       0.57       0.60
     1    43     44       1.41       0.56       0.61
     1    42     43       1.41       0.55       0.61
     1    41     42       1.41       0.54       0.61
     1    40     41       1.41       0.54       0.62
     1    39     40       1.41       0.54       0.62
     1    38     39       1.41       0.54       0.62
     1    37     38       1.41       0.54       0.62
     1    36     37       1.41       0.54       0.61
     1    35     36       1.41       0.54       0.61
     1    34     35       1.41       0.55       0.61
     1    33     34       1.41       0.55       0.61
     1    32     33       1.41       0.55       0.61
     1    31     32       1.41       0.55       0.61
     1    30     31       1.41       0.56       0.61
     1    29     30       1.41       0.56       0.60
     1    28     29       1.41       0.56       0.60
     1    27     28       1.41       0.57       0.60
     1    26     27       1.41       0.57       0.60
     1    25     26       1.41       0.58       0.59
     1    24     25       1.41       0.58       0.59
     1    23     24       1.41       0.59       0.58
     1    22     23       1.41       0.59       0.58
     1    21     22       1.41       0.60       0.57
     1    20     21       1.41       0.61       0.57
     1    19     20       1.41       0.62       0.56
     1    18     19       1.41       0.63       0.56
     1    17     18       1.41       0.64       0.55
     1    16     17       1.41       0.65       0.54
     1    15     16       1.41       0.66       0.53
     1    14     15       1.41       0.67       0.52
     1    13     14       1.41       0.68       0.52
     1    12     13       1.41       0.70       0.50
     1    11     12       1.41       0.72       0.49
     1    10     11       1.41       0.73       0.48
     1     9     10       1.41       0.75       0.47
     1     8      9       1.41       0.77       0.46
     1     7      8       1.41       0.79       0.44
     1     6      7       1.41       0.81       0.43
     1     5      6       1.41       0.83       0.41
     1     4      5       1.41       0.86       0.39
     1     3      4       1.41       0.89       0.37
     1     2      3       1.41       0.91       0.35
     1     1      2       1.41       1.04       0.26
     2     1     50       1.41       1.00       0.29
     3     1     98       1.41       1.00       0.29
     4     1    146       1.41       1.00       0.29
     5     1    194       1.41       1.00       0.29
     6     1    242       1.41       1.00       0.29
     7     1    290       1.41       1.00       0.29
     8     1    338       1.41       1.00       0.29
     9     1    386       1.41       1.01       0.29
    10     1    434       1.41       1.01       0.29
    11     1    482       1.41       1.01       0.29
    12     1    530       1.41       1.01       0.29
    13     1    578       1.41       1.01       0.29
    14     1    626       1.41       1.01       0.29
    15     1    674       1.41       1.01       0.29
    16     1    722       1.41       1.01       0.28
    17     1    770       1.41       1.01       0.28
    18     1    818       1.41       1.01       0.28
    19     1    866       1.41       1.01       0.28
    20     1    914       1.41       1.02       0.28
    21     1    962       1.41       1.02       0.28
    22     1   1010       1.41       1.03       0.27
    23     1   1058       1.41       1.03       0.27
    24     1   1106       1.41       1.03       0.27
    25     1   1154       1.41       1.04       0.26
    26     1   1202       1.41       1.09       0.22
    28     1   1298       1.41       0.81       0.43
    29     1   1346       1.41       0.81       0.43
    30     1   1394       1.41       0.81       0.43
    31     1   1442       1.41       0.81       0.43
    32     1   1490       1.41       0.82       0.42

 Time of computation ->  20251124.023000      in sec:       9000.
 not possible to compute, first iteration

  ** WARNING : Differences in wave height at the boundary
 Relative difference between input and computation >=   0.10
                         Hs[m]      Hs[m]      Hs[-]
     ix    iy  index   (input) (computed) (relative)
  --------------------------------------------------
     1    48     49       1.42       1.20       0.15
     1    47     48       1.42       0.81       0.43
     1    46     47       1.42       0.67       0.53
     1    45     46       1.42       0.61       0.57
     1    44     45       1.42       0.58       0.60
     1    43     44       1.42       0.56       0.61
     1    42     43       1.42       0.55       0.61
     1    41     42       1.42       0.55       0.61
     1    40     41       1.42       0.55       0.62
     1    39     40       1.42       0.55       0.62
     1    38     39       1.42       0.55       0.62
     1    37     38       1.42       0.55       0.62
     1    36     37       1.42       0.55       0.61
     1    35     36       1.42       0.55       0.61
     1    34     35       1.42       0.55       0.61
     1    33     34       1.42       0.55       0.61
     1    32     33       1.42       0.55       0.61
     1    31     32       1.42       0.56       0.61
     1    30     31       1.42       0.56       0.61
     1    29     30       1.42       0.56       0.60
     1    28     29       1.42       0.57       0.60
     1    27     28       1.42       0.57       0.60
     1    26     27       1.42       0.58       0.59
     1    25     26       1.42       0.58       0.59
     1    24     25       1.42       0.59       0.59
     1    23     24       1.42       0.59       0.58
     1    22     23       1.42       0.60       0.58
     1    21     22       1.42       0.61       0.57
     1    20     21       1.42       0.61       0.57
     1    19     20       1.42       0.62       0.56
     1    18     19       1.42       0.63       0.56
     1    17     18       1.42       0.64       0.55
     1    16     17       1.42       0.65       0.54
     1    15     16       1.42       0.66       0.53
     1    14     15       1.42       0.68       0.52
     1    13     14       1.42       0.69       0.51
     1    12     13       1.42       0.70       0.50
     1    11     12       1.42       0.72       0.49
     1    10     11       1.42       0.74       0.48
     1     9     10       1.42       0.76       0.47
     1     8      9       1.42       0.77       0.46
     1     7      8       1.42       0.79       0.44
     1     6      7       1.42       0.81       0.43
     1     5      6       1.42       0.84       0.41
     1     4      5       1.42       0.86       0.39
     1     3      4       1.42       0.89       0.37
     1     2      3       1.42       0.92       0.35
     1     1      2       1.42       1.05       0.26
     2     1     50       1.42       1.01       0.29
     3     1     98       1.42       1.01       0.29
     4     1    146       1.42       1.01       0.29
     5     1    194       1.42       1.01       0.29
     6     1    242       1.42       1.01       0.29
     7     1    290       1.42       1.01       0.29
     8     1    338       1.42       1.01       0.29
     9     1    386       1.42       1.01       0.29
    10     1    434       1.42       1.01       0.29
    11     1    482       1.42       1.01       0.29
    12     1    530       1.42       1.01       0.29
    13     1    578       1.42       1.01       0.29
    14     1    626       1.42       1.01       0.29
    15     1    674       1.42       1.02       0.29
    16     1    722       1.42       1.02       0.28
    17     1    770       1.42       1.02       0.28
    18     1    818       1.42       1.02       0.28
    19     1    866       1.42       1.02       0.28
    20     1    914       1.42       1.02       0.28
    21     1    962       1.42       1.03       0.28
    22     1   1010       1.42       1.03       0.27
    23     1   1058       1.42       1.04       0.27
    24     1   1106       1.42       1.04       0.27
    25     1   1154       1.42       1.05       0.26
    26     1   1202       1.42       1.10       0.22
    28     1   1298       1.42       0.82       0.43
    29     1   1346       1.42       0.82       0.43
    30     1   1394       1.42       0.82       0.43
    31     1   1442       1.42       0.82       0.43
    32     1   1490       1.42       0.83       0.42

 Time of computation ->  20251124.024500      in sec:       9900.
 not possible to compute, first iteration

  ** WARNING : Differences in wave height at the boundary
 Relative difference between input and computation >=   0.10
                         Hs[m]      Hs[m]      Hs[-]
     ix    iy  index   (input) (computed) (relative)
  --------------------------------------------------
     1    48     49       1.43       1.21       0.15
     1    47     48       1.43       0.82       0.43
     1    46     47       1.43       0.67       0.53
     1    45     46       1.43       0.61       0.57
     1    44     45       1.43       0.58       0.59
     1    43     44       1.43       0.56       0.61
     1    42     43       1.43       0.56       0.61
     1    41     42       1.43       0.55       0.61
     1    40     41       1.43       0.55       0.62
     1    39     40       1.43       0.55       0.62
     1    38     39       1.43       0.55       0.62
     1    37     38       1.43       0.55       0.62
     1    36     37       1.43       0.55       0.61
     1    35     36       1.43       0.55       0.61
     1    34     35       1.43       0.55       0.61
     1    33     34       1.43       0.56       0.61
     1    32     33       1.43       0.56       0.61
     1    31     32       1.43       0.56       0.61
     1    30     31       1.43       0.56       0.61
     1    29     30       1.43       0.57       0.60
     1    28     29       1.43       0.57       0.60
     1    27     28       1.43       0.58       0.60
     1    26     27       1.43       0.58       0.59
     1    25     26       1.43       0.58       0.59
     1    24     25       1.43       0.59       0.59
     1    23     24       1.43       0.60       0.58
     1    22     23       1.43       0.60       0.58
     1    21     22       1.43       0.61       0.57
     1    20     21       1.43       0.62       0.57
     1    19     20       1.43       0.63       0.56
     1    18     19       1.43       0.64       0.56
     1    17     18       1.43       0.65       0.55
     1    16     17       1.43       0.66       0.54
     1    15     16       1.43       0.67       0.53
     1    14     15       1.43       0.68       0.52
     1    13     14       1.43       0.69       0.51
     1    12     13       1.43       0.71       0.50
     1    11     12       1.43       0.73       0.49
     1    10     11       1.43       0.74       0.48
     1     9     10       1.43       0.76       0.47
     1     8      9       1.43       0.78       0.46
     1     7      8       1.43       0.80       0.44
     1     6      7       1.43       0.82       0.43
     1     5      6       1.43       0.84       0.41
     1     4      5       1.43       0.87       0.39
     1     3      4       1.43       0.90       0.37
     1     2      3       1.43       0.93       0.35
     1     1      2       1.43       1.06       0.26
     2     1     50       1.43       1.02       0.29
     3     1     98       1.43       1.02       0.29
     4     1    146       1.43       1.02       0.29
     5     1    194       1.43       1.02       0.29
     6     1    242       1.43       1.02       0.29
     7     1    290       1.43       1.02       0.29
     8     1    338       1.43       1.02       0.29
     9     1    386       1.43       1.02       0.29
    10     1    434       1.43       1.02       0.29
    11     1    482       1.43       1.02       0.29
    12     1    530       1.43       1.02       0.29
    13     1    578       1.43       1.02       0.29
    14     1    626       1.43       1.02       0.29
    15     1    674       1.43       1.02       0.29
    16     1    722       1.43       1.02       0.28
    17     1    770       1.43       1.02       0.28
    18     1    818       1.43       1.03       0.28
    19     1    866       1.43       1.03       0.28
    20     1    914       1.43       1.03       0.28
    21     1    962       1.43       1.04       0.28
    22     1   1010       1.43       1.04       0.27
    23     1   1058       1.43       1.04       0.27
    24     1   1106       1.43       1.05       0.27
    25     1   1154       1.43       1.06       0.26
    26     1   1202       1.43       1.11       0.22
    27     1   1250       1.43       1.29       0.10
    28     1   1298       1.43       0.82       0.43
    29     1   1346       1.43       0.82       0.43
    30     1   1394       1.43       0.82       0.43
    31     1   1442       1.43       0.82       0.43
    32     1   1490       1.43       0.83       0.42

 Time of computation ->  20251124.030000      in sec:      10800.
 not possible to compute, first iteration

  ** WARNING : Differences in wave height at the boundary
 Relative difference between input and computation >=   0.10
                         Hs[m]      Hs[m]      Hs[-]
     ix    iy  index   (input) (computed) (relative)
  --------------------------------------------------
     1    48     49       1.44       1.22       0.15
     1    47     48       1.44       0.83       0.43
     1    46     47       1.44       0.68       0.53
     1    45     46       1.44       0.61       0.57
     1    44     45       1.44       0.58       0.59
     1    43     44       1.44       0.57       0.61
     1    42     43       1.44       0.56       0.61
     1    41     42       1.44       0.56       0.61
     1    40     41       1.44       0.55       0.61
     1    39     40       1.44       0.55       0.62
     1    38     39       1.44       0.55       0.62
     1    37     38       1.44       0.55       0.61
     1    36     37       1.44       0.56       0.61
     1    35     36       1.44       0.56       0.61
     1    34     35       1.44       0.56       0.61
     1    33     34       1.44       0.56       0.61
     1    32     33       1.44       0.56       0.61
     1    31     32       1.44       0.57       0.61
     1    30     31       1.44       0.57       0.60
     1    29     30       1.44       0.57       0.60
     1    28     29       1.44       0.58       0.60
     1    27     28       1.44       0.58       0.60
     1    26     27       1.44       0.58       0.59
     1    25     26       1.44       0.59       0.59
     1    24     25       1.44       0.59       0.59
     1    23     24       1.44       0.60       0.58
     1    22     23       1.44       0.61       0.58
     1    21     22       1.44       0.61       0.57
     1    20     21       1.44       0.62       0.57
     1    19     20       1.44       0.63       0.56
     1    18     19       1.44       0.64       0.56
     1    17     18       1.44       0.65       0.55
     1    16     17       1.44       0.66       0.54
     1    15     16       1.44       0.67       0.53
     1    14     15       1.44       0.69       0.52
     1    13     14       1.44       0.70       0.51
     1    12     13       1.44       0.71       0.50
     1    11     12       1.44       0.73       0.49
     1    10     11       1.44       0.75       0.48
     1     9     10       1.44       0.77       0.47
     1     8      9       1.44       0.78       0.46
     1     7      8       1.44       0.80       0.44
     1     6      7       1.44       0.82       0.43
     1     5      6       1.44       0.85       0.41
     1     4      5       1.44       0.88       0.39
     1     3      4       1.44       0.91       0.37
     1     2      3       1.44       0.93       0.35
     1     1      2       1.44       1.06       0.26
     2     1     50       1.44       1.02       0.29
     3     1     98       1.44       1.02       0.29
     4     1    146       1.44       1.02       0.29
     5     1    194       1.44       1.02       0.29
     6     1    242       1.44       1.02       0.29
     7     1    290       1.44       1.02       0.29
     8     1    338       1.44       1.02       0.29
     9     1    386       1.44       1.02       0.29
    10     1    434       1.44       1.03       0.29
    11     1    482       1.44       1.03       0.29
    12     1    530       1.44       1.03       0.29
    13     1    578       1.44       1.03       0.29
    14     1    626       1.44       1.03       0.29
    15     1    674       1.44       1.03       0.29
    16     1    722       1.44       1.03       0.28
    17     1    770       1.44       1.03       0.28
    18     1    818       1.44       1.03       0.28
    19     1    866       1.44       1.03       0.28
    20     1    914       1.44       1.04       0.28
    21     1    962       1.44       1.04       0.28
    22     1   1010       1.44       1.05       0.27
    23     1   1058       1.44       1.05       0.27
    24     1   1106       1.44       1.05       0.27
    25     1   1154       1.44       1.07       0.26
    26     1   1202       1.44       1.12       0.22
    27     1   1250       1.44       1.29       0.10
    28     1   1298       1.44       0.83       0.43
    29     1   1346       1.44       0.83       0.43
    30     1   1394       1.44       0.83       0.43
    31     1   1442       1.44       0.83       0.43
    32     1   1490       1.44       0.84       0.42

 Time of computation ->  20251124.031500      in sec:      11700.
 not possible to compute, first iteration

  ** WARNING : Differences in wave height at the boundary
 Relative difference between input and computation >=   0.10
                         Hs[m]      Hs[m]      Hs[-]
     ix    iy  index   (input) (computed) (relative)
  --------------------------------------------------
     1    48     49       1.45       1.23       0.15
     1    47     48       1.45       0.83       0.43
     1    46     47       1.45       0.68       0.53
     1    45     46       1.45       0.62       0.57
     1    44     45       1.45       0.59       0.59
     1    43     44       1.45       0.57       0.61
     1    42     43       1.45       0.56       0.61
     1    41     42       1.45       0.56       0.61
     1    40     41       1.45       0.56       0.61
     1    39     40       1.45       0.56       0.62
     1    38     39       1.45       0.56       0.62
     1    37     38       1.45       0.56       0.61
     1    36     37       1.45       0.56       0.61
     1    35     36       1.45       0.56       0.61
     1    34     35       1.45       0.56       0.61
     1    33     34       1.45       0.56       0.61
     1    32     33       1.45       0.57       0.61
     1    31     32       1.45       0.57       0.61
     1    30     31       1.45       0.57       0.60
     1    29     30       1.45       0.58       0.60
     1    28     29       1.45       0.58       0.60
     1    27     28       1.45       0.58       0.60
     1    26     27       1.45       0.59       0.59
     1    25     26       1.45       0.59       0.59
     1    24     25       1.45       0.60       0.59
     1    23     24       1.45       0.60       0.58
     1    22     23       1.45       0.61       0.58
     1    21     22       1.45       0.62       0.57
     1    20     21       1.45       0.63       0.57
     1    19     20       1.45       0.63       0.56
     1    18     19       1.45       0.64       0.56
     1    17     18       1.45       0.65       0.55
     1    16     17       1.45       0.67       0.54
     1    15     16       1.45       0.68       0.53
     1    14     15       1.45       0.69       0.52
     1    13     14       1.45       0.70       0.51
     1    12     13       1.45       0.72       0.50
     1    11     12       1.45       0.74       0.49
     1    10     11       1.45       0.75       0.48
     1     9     10       1.45       0.77       0.47
     1     8      9       1.45       0.79       0.45
     1     7      8       1.45       0.81       0.44
     1     6      7       1.45       0.83       0.43
     1     5      6       1.45       0.85       0.41
     1     4      5       1.45       0.88       0.39
     1     3      4       1.45       0.91       0.37
     1     2      3       1.45       0.94       0.35
     1     1      2       1.45       1.07       0.26
     2     1     50       1.45       1.03       0.29
     3     1     98       1.45       1.03       0.29
     4     1    146       1.45       1.03       0.29
     5     1    194       1.45       1.03       0.29
     6     1    242       1.45       1.03       0.29
     7     1    290       1.45       1.03       0.29
     8     1    338       1.45       1.03       0.29
     9     1    386       1.45       1.03       0.29
    10     1    434       1.45       1.03       0.29
    11     1    482       1.45       1.03       0.29
    12     1    530       1.45       1.03       0.29
    13     1    578       1.45       1.03       0.29
    14     1    626       1.45       1.03       0.29
    15     1    674       1.45       1.03       0.29
    16     1    722       1.45       1.04       0.28
    17     1    770       1.45       1.04       0.28
    18     1    818       1.45       1.04       0.28
    19     1    866       1.45       1.04       0.28
    20     1    914       1.45       1.04       0.28
    21     1    962       1.45       1.05       0.28
    22     1   1010       1.45       1.05       0.27
    23     1   1058       1.45       1.06       0.27
    24     1   1106       1.45       1.06       0.27
    25     1   1154       1.45       1.07       0.26
    26     1   1202       1.45       1.12       0.22
    27     1   1250       1.45       1.30       0.10
    28     1   1298       1.45       0.83       0.43
    29     1   1346       1.45       0.83       0.43
    30     1   1394       1.45       0.83       0.43
    31     1   1442       1.45       0.83       0.43
    32     1   1490       1.45       0.84       0.42

 Time of computation ->  20251124.033000      in sec:      12600.
 not possible to compute, first iteration

  ** WARNING : Differences in wave height at the boundary
 Relative difference between input and computation >=   0.10
                         Hs[m]      Hs[m]      Hs[-]
     ix    iy  index   (input) (computed) (relative)
  --------------------------------------------------
     1    48     49       1.46       1.23       0.15
     1    47     48       1.46       0.84       0.43
     1    46     47       1.46       0.69       0.53
     1    45     46       1.46       0.62       0.57
     1    44     45       1.46       0.59       0.59
     1    43     44       1.46       0.58       0.61
     1    42     43       1.46       0.57       0.61
     1    41     42       1.46       0.56       0.61
     1    40     41       1.46       0.56       0.61
     1    39     40       1.46       0.56       0.62
     1    38     39       1.46       0.56       0.62
     1    37     38       1.46       0.56       0.61
     1    36     37       1.46       0.56       0.61
     1    35     36       1.46       0.56       0.61
     1    34     35       1.46       0.57       0.61
     1    33     34       1.46       0.57       0.61
     1    32     33       1.46       0.57       0.61
     1    31     32       1.46       0.57       0.61
     1    30     31       1.46       0.58       0.60
     1    29     30       1.46       0.58       0.60
     1    28     29       1.46       0.58       0.60
     1    27     28       1.46       0.59       0.60
     1    26     27       1.46       0.59       0.59
     1    25     26       1.46       0.60       0.59
     1    24     25       1.46       0.60       0.59
     1    23     24       1.46       0.61       0.58
     1    22     23       1.46       0.61       0.58
     1    21     22       1.46       0.62       0.57
     1    20     21       1.46       0.63       0.57
     1    19     20       1.46       0.64       0.56
     1    18     19       1.46       0.65       0.56
     1    17     18       1.46       0.66       0.55
     1    16     17       1.46       0.67       0.54
     1    15     16       1.46       0.68       0.53
     1    14     15       1.46       0.69       0.52
     1    13     14       1.46       0.71       0.51
     1    12     13       1.46       0.72       0.50
     1    11     12       1.46       0.74       0.49
     1    10     11       1.46       0.76       0.48
     1     9     10       1.46       0.78       0.47
     1     8      9       1.46       0.79       0.45
     1     7      8       1.46       0.81       0.44
     1     6      7       1.46       0.84       0.43
     1     5      6       1.46       0.86       0.41
     1     4      5       1.46       0.89       0.39
     1     3      4       1.46       0.92       0.37
     1     2      3       1.46       0.94       0.35
     1     1      2       1.46       1.08       0.26
     2     1     50       1.46       1.04       0.29
     3     1     98       1.46       1.04       0.29
     4     1    146       1.46       1.04       0.29
     5     1    194       1.46       1.04       0.29
     6     1    242       1.46       1.04       0.29
     7     1    290       1.46       1.04       0.29
     8     1    338       1.46       1.04       0.29
     9     1    386       1.46       1.04       0.29
    10     1    434       1.46       1.04       0.29
    11     1    482       1.46       1.04       0.29
    12     1    530       1.46       1.04       0.29
    13     1    578       1.46       1.04       0.29
    14     1    626       1.46       1.04       0.29
    15     1    674       1.46       1.04       0.29
    16     1    722       1.46       1.04       0.28
    17     1    770       1.46       1.04       0.28
    18     1    818       1.46       1.05       0.28
    19     1    866       1.46       1.05       0.28
    20     1    914       1.46       1.05       0.28
    21     1    962       1.46       1.06       0.28
    22     1   1010       1.46       1.06       0.27
    23     1   1058       1.46       1.06       0.27
    24     1   1106       1.46       1.07       0.27
    25     1   1154       1.46       1.08       0.26
    26     1   1202       1.46       1.13       0.22
    27     1   1250       1.46       1.31       0.10
    28     1   1298       1.46       0.84       0.43
    29     1   1346       1.46       0.84       0.43
    30     1   1394       1.46       0.84       0.43
    31     1   1442       1.46       0.84       0.43
    32     1   1490       1.46       0.85       0.42

 Time of computation ->  20251124.034500      in sec:      13500.
 not possible to compute, first iteration

  ** WARNING : Differences in wave height at the boundary
 Relative difference between input and computation >=   0.10
                         Hs[m]      Hs[m]      Hs[-]
     ix    iy  index   (input) (computed) (relative)
  --------------------------------------------------
     1    48     49       1.47       1.24       0.15
     1    47     48       1.47       0.84       0.43
     1    46     47       1.47       0.69       0.53
     1    45     46       1.47       0.63       0.57
     1    44     45       1.47       0.59       0.59
     1    43     44       1.47       0.58       0.61
     1    42     43       1.47       0.57       0.61
     1    41     42       1.47       0.57       0.61
     1    40     41       1.47       0.57       0.61
     1    39     40       1.47       0.56       0.62
     1    38     39       1.47       0.56       0.62
     1    37     38       1.47       0.57       0.61
     1    36     37       1.47       0.57       0.61
     1    35     36       1.47       0.57       0.61
     1    34     35       1.47       0.57       0.61
     1    33     34       1.47       0.57       0.61
     1    32     33       1.47       0.57       0.61
     1    31     32       1.47       0.58       0.61
     1    30     31       1.47       0.58       0.60
     1    29     30       1.47       0.58       0.60
     1    28     29       1.47       0.59       0.60
     1    27     28       1.47       0.59       0.60
     1    26     27       1.47       0.60       0.59
     1    25     26       1.47       0.60       0.59
     1    24     25       1.47       0.61       0.59
     1    23     24       1.47       0.61       0.58
     1    22     23       1.47       0.62       0.58
     1    21     22       1.47       0.63       0.57
     1    20     21       1.47       0.63       0.57
     1    19     20       1.47       0.64       0.56
     1    18     19       1.47       0.65       0.56
     1    17     18       1.47       0.66       0.55
     1    16     17       1.47       0.67       0.54
     1    15     16       1.47       0.69       0.53
     1    14     15       1.47       0.70       0.52
     1    13     14       1.47       0.71       0.51
     1    12     13       1.47       0.73       0.50
     1    11     12       1.47       0.74       0.49
     1    10     11       1.47       0.76       0.48
     1     9     10       1.47       0.78       0.47
     1     8      9       1.47       0.80       0.45
     1     7      8       1.47       0.82       0.44
     1     6      7       1.47       0.84       0.43
     1     5      6       1.47       0.86       0.41
     1     4      5       1.47       0.89       0.39
     1     3      4       1.47       0.92       0.37
     1     2      3       1.47       0.95       0.35
     1     1      2       1.47       1.08       0.26
     2     1     50       1.47       1.04       0.29
     3     1     98       1.47       1.04       0.29
     4     1    146       1.47       1.04       0.29
     5     1    194       1.47       1.04       0.29
     6     1    242       1.47       1.04       0.29
     7     1    290       1.47       1.04       0.29
     8     1    338       1.47       1.04       0.29
     9     1    386       1.47       1.04       0.29
    10     1    434       1.47       1.04       0.29
    11     1    482       1.47       1.05       0.29
    12     1    530       1.47       1.05       0.29
    13     1    578       1.47       1.05       0.29
    14     1    626       1.47       1.05       0.29
    15     1    674       1.47       1.05       0.29
    16     1    722       1.47       1.05       0.28
    17     1    770       1.47       1.05       0.28
    18     1    818       1.47       1.05       0.28
    19     1    866       1.47       1.05       0.28
    20     1    914       1.47       1.06       0.28
    21     1    962       1.47       1.06       0.28
    22     1   1010       1.47       1.07       0.27
    23     1   1058       1.47       1.07       0.27
    24     1   1106       1.47       1.07       0.27
    25     1   1154       1.47       1.09       0.26
    26     1   1202       1.47       1.14       0.22
    27     1   1250       1.47       1.32       0.10
    28     1   1298       1.47       0.84       0.43
    29     1   1346       1.47       0.84       0.43
    30     1   1394       1.47       0.84       0.43
    31     1   1442       1.47       0.84       0.43
    32     1   1490       1.47       0.85       0.42

 Time of computation ->  20251124.040000      in sec:      14400.
 not possible to compute, first iteration

  ** WARNING : Differences in wave height at the boundary
 Relative difference between input and computation >=   0.10
                         Hs[m]      Hs[m]      Hs[-]
     ix    iy  index   (input) (computed) (relative)
  --------------------------------------------------
     1    48     49       1.48       1.25       0.15
     1    47     48       1.48       0.85       0.43
     1    46     47       1.48       0.70       0.53
     1    45     46       1.48       0.63       0.57
     1    44     45       1.48       0.60       0.59
     1    43     44       1.48       0.58       0.61
     1    42     43       1.48       0.57       0.61
     1    41     42       1.48       0.57       0.61
     1    40     41       1.48       0.57       0.61
     1    39     40       1.48       0.57       0.62
     1    38     39       1.48       0.57       0.61
     1    37     38       1.48       0.57       0.61
     1    36     37       1.48       0.57       0.61
     1    35     36       1.48       0.57       0.61
     1    34     35       1.48       0.57       0.61
     1    33     34       1.48       0.58       0.61
     1    32     33       1.48       0.58       0.61
     1    31     32       1.48       0.58       0.61
     1    30     31       1.48       0.58       0.60
     1    29     30       1.48       0.59       0.60
     1    28     29       1.48       0.59       0.60
     1    27     28       1.48       0.59       0.60
     1    26     27       1.48       0.60       0.59
     1    25     26       1.48       0.60       0.59
     1    24     25       1.48       0.61       0.59
     1    23     24       1.48       0.62       0.58
     1    22     23       1.48       0.62       0.58
     1    21     22       1.48       0.63       0.57
     1    20     21       1.48       0.64       0.57
     1    19     20       1.48       0.65       0.56
     1    18     19       1.48       0.66       0.56
     1    17     18       1.48       0.67       0.55
     1    16     17       1.48       0.68       0.54
     1    15     16       1.48       0.69       0.53
     1    14     15       1.48       0.70       0.52
     1    13     14       1.48       0.72       0.51
     1    12     13       1.48       0.73       0.50
     1    11     12       1.48       0.75       0.49
     1    10     11       1.48       0.77       0.48
     1     9     10       1.48       0.79       0.47
     1     8      9       1.48       0.80       0.45
     1     7      8       1.48       0.82       0.44
     1     6      7       1.48       0.85       0.43
     1     5      6       1.48       0.87       0.41
     1     4      5       1.48       0.90       0.39
     1     3      4       1.48       0.93       0.37
     1     2      3       1.48       0.96       0.35
     1     1      2       1.48       1.09       0.26
     2     1     50       1.48       1.05       0.29
     3     1     98       1.48       1.05       0.29
     4     1    146       1.48       1.05       0.29
     5     1    194       1.48       1.05       0.29
     6     1    242       1.48       1.05       0.29
     7     1    290       1.48       1.05       0.29
     8     1    338       1.48       1.05       0.29
     9     1    386       1.48       1.05       0.29
    10     1    434       1.48       1.05       0.29
    11     1    482       1.48       1.05       0.29
    12     1    530       1.48       1.05       0.29
    13     1    578       1.48       1.05       0.29
    14     1    626       1.48       1.05       0.29
    15     1    674       1.48       1.05       0.29
    16     1    722       1.48       1.06       0.28
    17     1    770       1.48       1.06       0.28
    18     1    818       1.48       1.06       0.28
    19     1    866       1.48       1.06       0.28
    20     1    914       1.48       1.06       0.28
    21     1    962       1.48       1.07       0.28
    22     1   1010       1.48       1.07       0.27
    23     1   1058       1.48       1.08       0.27
    24     1   1106       1.48       1.08       0.27
    25     1   1154       1.48       1.09       0.26
    26     1   1202       1.48       1.15       0.22
    27     1   1250       1.48       1.32       0.10
    28     1   1298       1.48       0.84       0.43
    29     1   1346       1.48       0.84       0.43
    30     1   1394       1.48       0.84       0.43
    31     1   1442       1.48       0.84       0.43
    32     1   1490       1.48       0.85       0.43
    33     1   1538       1.48       1.33       0.10

 Time of computation ->  20251124.041500      in sec:      15300.
 not possible to compute, first iteration

  ** WARNING : Differences in wave height at the boundary
 Relative difference between input and computation >=   0.10
                         Hs[m]      Hs[m]      Hs[-]
     ix    iy  index   (input) (computed) (relative)
  --------------------------------------------------
     1    48     49       1.48       1.26       0.15
     1    47     48       1.48       0.85       0.43
     1    46     47       1.48       0.70       0.53
     1    45     46       1.48       0.63       0.57
     1    44     45       1.48       0.60       0.59
     1    43     44       1.48       0.59       0.60
     1    42     43       1.48       0.58       0.61
     1    41     42       1.48       0.57       0.61
     1    40     41       1.48       0.57       0.61
     1    39     40       1.48       0.57       0.62
     1    38     39       1.48       0.57       0.61
     1    37     38       1.48       0.57       0.61
     1    36     37       1.48       0.57       0.61
     1    35     36       1.48       0.57       0.61
     1    34     35       1.48       0.58       0.61
     1    33     34       1.48       0.58       0.61
     1    32     33       1.48       0.58       0.61
     1    31     32       1.48       0.58       0.61
     1    30     31       1.48       0.59       0.60
     1    29     30       1.48       0.59       0.60
     1    28     29       1.48       0.59       0.60
     1    27     28       1.48       0.60       0.60
     1    26     27       1.48       0.60       0.59
     1    25     26       1.48       0.61       0.59
     1    24     25       1.48       0.61       0.59
     1    23     24       1.48       0.62       0.58
     1    22     23       1.48       0.63       0.58
     1    21     22       1.48       0.63       0.57
     1    20     21       1.48       0.64       0.57
     1    19     20       1.48       0.65       0.56
     1    18     19       1.48       0.66       0.56
     1    17     18       1.48       0.67       0.55
     1    16     17       1.48       0.68       0.54
     1    15     16       1.48       0.69       0.53
     1    14     15       1.48       0.71       0.52
     1    13     14       1.48       0.72       0.51
     1    12     13       1.48       0.74       0.50
     1    11     12       1.48       0.75       0.49
     1    10     11       1.48       0.77       0.48
     1     9     10       1.48       0.79       0.47
     1     8      9       1.48       0.81       0.45
[...]
     2     1     50       1.31       0.88       0.33
     3     1     98       1.31       0.88       0.33
     4     1    146       1.31       0.88       0.33
     5     1    194       1.31       0.88       0.33
     6     1    242       1.31       0.88       0.33
     7     1    290       1.31       0.88       0.33
     8     1    338       1.31       0.88       0.33
     9     1    386       1.31       0.88       0.33
    10     1    434       1.31       0.88       0.33
    11     1    482       1.31       0.88       0.33
    12     1    530       1.31       0.88       0.33
    13     1    578       1.31       0.88       0.33
    14     1    626       1.31       0.88       0.33
    15     1    674       1.31       0.88       0.33
    16     1    722       1.31       0.88       0.33
    17     1    770       1.31       0.88       0.33
    18     1    818       1.31       0.88       0.33
    19     1    866       1.31       0.88       0.33
    20     1    914       1.31       0.88       0.33
    21     1    962       1.31       0.88       0.33
    22     1   1010       1.31       0.88       0.33
    23     1   1058       1.31       0.88       0.33
    24     1   1106       1.31       0.89       0.32
    25     1   1154       1.31       0.91       0.30
    26     1   1202       1.31       0.98       0.26
    27     1   1250       1.31       1.18       0.10
    28     1   1298       1.31       0.74       0.43
    29     1   1346       1.31       0.74       0.44
    30     1   1394       1.31       0.74       0.44
    31     1   1442       1.31       0.74       0.44
    32     1   1490       1.31       0.76       0.42

 Time of computation ->  20251130.171500      in sec:     580500.
 not possible to compute, first iteration

  ** WARNING : Differences in wave height at the boundary
 Relative difference between input and computation >=   0.10
                         Hs[m]      Hs[m]      Hs[-]
     ix    iy  index   (input) (computed) (relative)
  --------------------------------------------------
     1    48     49       1.31       1.11       0.16
     1    47     48       1.31       0.73       0.45
     1    46     47       1.31       0.57       0.57
     1    45     46       1.31       0.50       0.62
     1    44     45       1.31       0.46       0.65
     1    43     44       1.31       0.44       0.66
     1    42     43       1.31       0.43       0.67
     1    41     42       1.31       0.42       0.68
     1    40     41       1.31       0.42       0.68
     1    39     40       1.31       0.42       0.68
     1    38     39       1.31       0.42       0.68
     1    37     38       1.31       0.42       0.68
     1    36     37       1.31       0.42       0.68
     1    35     36       1.31       0.42       0.68
     1    34     35       1.31       0.42       0.68
     1    33     34       1.31       0.42       0.68
     1    32     33       1.31       0.43       0.68
     1    31     32       1.31       0.43       0.67
     1    30     31       1.31       0.43       0.67
     1    29     30       1.31       0.44       0.67
     1    28     29       1.31       0.44       0.67
     1    27     28       1.31       0.44       0.66
     1    26     27       1.31       0.45       0.66
     1    25     26       1.31       0.45       0.66
     1    24     25       1.31       0.46       0.65
     1    23     24       1.31       0.46       0.65
     1    22     23       1.31       0.47       0.64
     1    21     22       1.31       0.48       0.64
     1    20     21       1.31       0.48       0.63
     1    19     20       1.31       0.49       0.62
     1    18     19       1.31       0.50       0.62
     1    17     18       1.31       0.52       0.61
     1    16     17       1.31       0.53       0.60
     1    15     16       1.31       0.54       0.59
     1    14     15       1.31       0.55       0.58
     1    13     14       1.31       0.57       0.57
     1    12     13       1.31       0.58       0.56
     1    11     12       1.31       0.60       0.54
     1    10     11       1.31       0.62       0.53
     1     9     10       1.31       0.64       0.51
     1     8      9       1.31       0.66       0.50
     1     7      8       1.31       0.68       0.48
     1     6      7       1.31       0.70       0.47
     1     5      6       1.31       0.73       0.45
     1     4      5       1.31       0.75       0.43
     1     3      4       1.31       0.78       0.40
     1     2      3       1.31       0.81       0.38
     1     1      2       1.31       0.91       0.31
     2     1     50       1.31       0.88       0.33
     3     1     98       1.31       0.88       0.33
     4     1    146       1.31       0.88       0.33
     5     1    194       1.31       0.88       0.33
     6     1    242       1.31       0.88       0.33
     7     1    290       1.31       0.88       0.33
     8     1    338       1.31       0.88       0.33
     9     1    386       1.31       0.88       0.33
    10     1    434       1.31       0.88       0.33
    11     1    482       1.31       0.88       0.33
    12     1    530       1.31       0.88       0.33
    13     1    578       1.31       0.88       0.33
    14     1    626       1.31       0.88       0.33
    15     1    674       1.31       0.88       0.33
    16     1    722       1.31       0.88       0.33
    17     1    770       1.31       0.88       0.33
    18     1    818       1.31       0.88       0.33
    19     1    866       1.31       0.88       0.33
    20     1    914       1.31       0.88       0.33
    21     1    962       1.31       0.88       0.33
    22     1   1010       1.31       0.88       0.33
    23     1   1058       1.31       0.88       0.33
    24     1   1106       1.31       0.89       0.32
    25     1   1154       1.31       0.91       0.30
    26     1   1202       1.31       0.98       0.26
    27     1   1250       1.31       1.18       0.10
    28     1   1298       1.31       0.74       0.43
    29     1   1346       1.31       0.74       0.43
    30     1   1394       1.31       0.74       0.44
    31     1   1442       1.31       0.74       0.43
    32     1   1490       1.31       0.76       0.42

 Time of computation ->  20251130.173000      in sec:     581400.
 not possible to compute, first iteration

  ** WARNING : Differences in wave height at the boundary
 Relative difference between input and computation >=   0.10
                         Hs[m]      Hs[m]      Hs[-]
     ix    iy  index   (input) (computed) (relative)
  --------------------------------------------------
     1    48     49       1.31       1.11       0.16
     1    47     48       1.31       0.73       0.45
     1    46     47       1.31       0.57       0.57
     1    45     46       1.31       0.50       0.62
     1    44     45       1.31       0.46       0.65
     1    43     44       1.31       0.44       0.66
     1    42     43       1.31       0.43       0.67
     1    41     42       1.31       0.42       0.68
     1    40     41       1.31       0.42       0.68
     1    39     40       1.31       0.42       0.68
     1    38     39       1.31       0.42       0.68
     1    37     38       1.31       0.42       0.68
     1    36     37       1.31       0.42       0.68
     1    35     36       1.31       0.42       0.68
     1    34     35       1.31       0.42       0.68
     1    33     34       1.31       0.42       0.68
     1    32     33       1.31       0.43       0.68
     1    31     32       1.31       0.43       0.67
     1    30     31       1.31       0.43       0.67
     1    29     30       1.31       0.44       0.67
     1    28     29       1.31       0.44       0.67
     1    27     28       1.31       0.44       0.66
     1    26     27       1.31       0.45       0.66
     1    25     26       1.31       0.45       0.66
     1    24     25       1.31       0.46       0.65
     1    23     24       1.31       0.46       0.65
     1    22     23       1.31       0.47       0.64
     1    21     22       1.31       0.48       0.64
     1    20     21       1.31       0.48       0.63
     1    19     20       1.31       0.49       0.62
     1    18     19       1.31       0.50       0.62
     1    17     18       1.31       0.52       0.61
     1    16     17       1.31       0.53       0.60
     1    15     16       1.31       0.54       0.59
     1    14     15       1.31       0.55       0.58
     1    13     14       1.31       0.57       0.57
     1    12     13       1.31       0.58       0.56
     1    11     12       1.31       0.60       0.54
     1    10     11       1.31       0.62       0.53
     1     9     10       1.31       0.64       0.51
     1     8      9       1.31       0.66       0.50
     1     7      8       1.31       0.68       0.48
     1     6      7       1.31       0.70       0.47
     1     5      6       1.31       0.73       0.45
     1     4      5       1.31       0.75       0.43
     1     3      4       1.31       0.78       0.40
     1     2      3       1.31       0.81       0.38
     1     1      2       1.31       0.91       0.31
     2     1     50       1.31       0.88       0.33
     3     1     98       1.31       0.88       0.33
     4     1    146       1.31       0.88       0.33
     5     1    194       1.31       0.88       0.33
     6     1    242       1.31       0.88       0.33
     7     1    290       1.31       0.88       0.33
     8     1    338       1.31       0.88       0.33
     9     1    386       1.31       0.88       0.33
    10     1    434       1.31       0.88       0.33
    11     1    482       1.31       0.88       0.33
    12     1    530       1.31       0.88       0.33
    13     1    578       1.31       0.88       0.33
    14     1    626       1.31       0.88       0.33
    15     1    674       1.31       0.88       0.33
    16     1    722       1.31       0.88       0.33
    17     1    770       1.31       0.88       0.33
    18     1    818       1.31       0.88       0.33
    19     1    866       1.31       0.88       0.33
    20     1    914       1.31       0.88       0.33
    21     1    962       1.31       0.88       0.33
    22     1   1010       1.31       0.88       0.33
    23     1   1058       1.31       0.88       0.33
    24     1   1106       1.31       0.89       0.32
    25     1   1154       1.31       0.92       0.30
    26     1   1202       1.31       0.98       0.26
    27     1   1250       1.31       1.18       0.10
    28     1   1298       1.31       0.74       0.43
    29     1   1346       1.31       0.74       0.43
    30     1   1394       1.31       0.74       0.43
    31     1   1442       1.31       0.74       0.43
    32     1   1490       1.31       0.76       0.42

 Time of computation ->  20251130.174500      in sec:     582300.
 not possible to compute, first iteration

  ** WARNING : Differences in wave height at the boundary
 Relative difference between input and computation >=   0.10
                         Hs[m]      Hs[m]      Hs[-]
     ix    iy  index   (input) (computed) (relative)
  --------------------------------------------------
     1    48     49       1.32       1.11       0.16
     1    47     48       1.32       0.73       0.45
     1    46     47       1.32       0.57       0.57
     1    45     46       1.32       0.50       0.62
     1    44     45       1.32       0.46       0.65
     1    43     44       1.32       0.44       0.66
     1    42     43       1.32       0.43       0.67
     1    41     42       1.32       0.42       0.68
     1    40     41       1.32       0.42       0.68
     1    39     40       1.32       0.42       0.68
     1    38     39       1.32       0.42       0.68
     1    37     38       1.32       0.42       0.68
     1    36     37       1.32       0.42       0.68
     1    35     36       1.32       0.42       0.68
     1    34     35       1.32       0.42       0.68
     1    33     34       1.32       0.42       0.68
     1    32     33       1.32       0.43       0.68
     1    31     32       1.32       0.43       0.67
     1    30     31       1.32       0.43       0.67
     1    29     30       1.32       0.44       0.67
     1    28     29       1.32       0.44       0.67
     1    27     28       1.32       0.44       0.66
     1    26     27       1.32       0.45       0.66
     1    25     26       1.32       0.45       0.66
     1    24     25       1.32       0.46       0.65
     1    23     24       1.32       0.46       0.65
     1    22     23       1.32       0.47       0.64
     1    21     22       1.32       0.48       0.64
     1    20     21       1.32       0.48       0.63
     1    19     20       1.32       0.49       0.62
     1    18     19       1.32       0.51       0.62
     1    17     18       1.32       0.52       0.61
     1    16     17       1.32       0.53       0.60
     1    15     16       1.32       0.54       0.59
     1    14     15       1.32       0.55       0.58
     1    13     14       1.32       0.57       0.57
     1    12     13       1.32       0.58       0.56
     1    11     12       1.32       0.60       0.54
     1    10     11       1.32       0.62       0.53
     1     9     10       1.32       0.64       0.51
     1     8      9       1.32       0.66       0.50
     1     7      8       1.32       0.68       0.48
     1     6      7       1.32       0.70       0.47
     1     5      6       1.32       0.73       0.45
     1     4      5       1.32       0.76       0.43
     1     3      4       1.32       0.79       0.40
     1     2      3       1.32       0.81       0.38
     1     1      2       1.32       0.91       0.31
     2     1     50       1.32       0.88       0.33
     3     1     98       1.32       0.88       0.33
     4     1    146       1.32       0.88       0.33
     5     1    194       1.32       0.88       0.33
     6     1    242       1.32       0.88       0.33
     7     1    290       1.32       0.88       0.33
     8     1    338       1.32       0.88       0.33
     9     1    386       1.32       0.88       0.33
    10     1    434       1.32       0.88       0.33
    11     1    482       1.32       0.88       0.33
    12     1    530       1.32       0.88       0.33
    13     1    578       1.32       0.88       0.33
    14     1    626       1.32       0.88       0.33
    15     1    674       1.32       0.88       0.33
    16     1    722       1.32       0.88       0.33
    17     1    770       1.32       0.88       0.33
    18     1    818       1.32       0.88       0.33
    19     1    866       1.32       0.88       0.33
    20     1    914       1.32       0.88       0.33
    21     1    962       1.32       0.88       0.33
    22     1   1010       1.32       0.88       0.33
    23     1   1058       1.32       0.88       0.33
    24     1   1106       1.32       0.89       0.32
    25     1   1154       1.32       0.92       0.30
    26     1   1202       1.32       0.98       0.26
    27     1   1250       1.32       1.18       0.10
    28     1   1298       1.32       0.74       0.43
    29     1   1346       1.32       0.74       0.43
    30     1   1394       1.32       0.74       0.43
    31     1   1442       1.32       0.74       0.43
    32     1   1490       1.32       0.76       0.42

 Time of computation ->  20251130.180000      in sec:     583200.
 not possible to compute, first iteration

  ** WARNING : Differences in wave height at the boundary
 Relative difference between input and computation >=   0.10
                         Hs[m]      Hs[m]      Hs[-]
     ix    iy  index   (input) (computed) (relative)
  --------------------------------------------------
     1    48     49       1.32       1.11       0.16
     1    47     48       1.32       0.73       0.45
     1    46     47       1.32       0.57       0.57
     1    45     46       1.32       0.49       0.62
     1    44     45       1.32       0.46       0.65
     1    43     44       1.32       0.44       0.66
     1    42     43       1.32       0.43       0.67
     1    41     42       1.32       0.42       0.68
     1    40     41       1.32       0.42       0.68
     1    39     40       1.32       0.42       0.68
     1    38     39       1.32       0.42       0.68
     1    37     38       1.32       0.42       0.68
     1    36     37       1.32       0.42       0.68
     1    35     36       1.32       0.42       0.68
     1    34     35       1.32       0.42       0.68
     1    33     34       1.32       0.42       0.68
     1    32     33       1.32       0.43       0.68
     1    31     32       1.32       0.43       0.67
     1    30     31       1.32       0.43       0.67
     1    29     30       1.32       0.44       0.67
     1    28     29       1.32       0.44       0.67
     1    27     28       1.32       0.44       0.66
     1    26     27       1.32       0.45       0.66
     1    25     26       1.32       0.45       0.66
     1    24     25       1.32       0.46       0.65
     1    23     24       1.32       0.46       0.65
     1    22     23       1.32       0.47       0.64
     1    21     22       1.32       0.48       0.64
     1    20     21       1.32       0.48       0.63
     1    19     20       1.32       0.49       0.62
     1    18     19       1.32       0.51       0.62
     1    17     18       1.32       0.52       0.61
     1    16     17       1.32       0.53       0.60
     1    15     16       1.32       0.54       0.59
     1    14     15       1.32       0.55       0.58
     1    13     14       1.32       0.57       0.57
     1    12     13       1.32       0.58       0.56
     1    11     12       1.32       0.60       0.54
     1    10     11       1.32       0.62       0.53
     1     9     10       1.32       0.64       0.51
     1     8      9       1.32       0.66       0.50
     1     7      8       1.32       0.68       0.48
     1     6      7       1.32       0.70       0.47
     1     5      6       1.32       0.73       0.45
     1     4      5       1.32       0.76       0.43
     1     3      4       1.32       0.79       0.40
     1     2      3       1.32       0.81       0.38
     1     1      2       1.32       0.91       0.31
     2     1     50       1.32       0.88       0.33
     3     1     98       1.32       0.88       0.33
     4     1    146       1.32       0.88       0.33
     5     1    194       1.32       0.88       0.33
     6     1    242       1.32       0.88       0.33
     7     1    290       1.32       0.88       0.33
     8     1    338       1.32       0.88       0.33
     9     1    386       1.32       0.88       0.33
    10     1    434       1.32       0.88       0.33
    11     1    482       1.32       0.88       0.33
    12     1    530       1.32       0.88       0.33
    13     1    578       1.32       0.88       0.33
    14     1    626       1.32       0.88       0.33
    15     1    674       1.32       0.88       0.33
    16     1    722       1.32       0.88       0.33
    17     1    770       1.32       0.88       0.33
    18     1    818       1.32       0.88       0.33
    19     1    866       1.32       0.88       0.33
    20     1    914       1.32       0.88       0.33
    21     1    962       1.32       0.88       0.33
    22     1   1010       1.32       0.88       0.33
    23     1   1058       1.32       0.88       0.33
    24     1   1106       1.32       0.89       0.32
    25     1   1154       1.32       0.92       0.30
    26     1   1202       1.32       0.98       0.25
    27     1   1250       1.32       1.18       0.10
    28     1   1298       1.32       0.74       0.43
    29     1   1346       1.32       0.74       0.43
    30     1   1394       1.32       0.74       0.43
    31     1   1442       1.32       0.74       0.43
    32     1   1490       1.32       0.76       0.42

    
 STOP
