1

                    Execution started at 20251123.221045         



                    ---------------------------------------
                                     SWAN
                    SIMULATION OF WAVES IN NEAR SHORE AREAS
                             VERSION NUMBER 41.51               
                    ---------------------------------------


    
 $ SWAN INPUT: HIKKADUWA (7 DAY / 3 HR)
    
 PROJECT 'Hikkaduwa' '1'
    
 MODE NONSTATIONARY
    
 COORDINATES SPHERICAL
    
 
    
 $ 1. GRID
    
 CGRID REGULAR 79.952083 5.952083 0.0 0.1958 0.1958 47 47 CIRCLE 36 0.05 1.0 24
 Resolution in sigma-space: df/f =  0.1329
    
 INPGRID BOTTOM 79.952083 5.952083 0.0 47 47 0.004167 0.004167 EXC -99
    
 READGRID BOTTOM 1 'hikkaduwa.bot' 1 0 FREE
    
 
    
 $ 2. BOUNDARIES
    
 BOUND SHAPE JONSWAP 3.3 PEAK DSPR DEGREES
    
 BOUNDSPEC SIDE SOUTH CONSTANT FILE 'hikkaduwa_boundary.bnd'
    
 BOUNDSPEC SIDE WEST CONSTANT FILE 'hikkaduwa_boundary_copy.bnd'
    
 
    
 $ 3. PHYSICS
    
 BREAKING CON 1.0 0.73
    
 FRICTION JONSWAP CONSTANT 0.067
    
 OFF WCAP
    
 OFF QUAD
    
 
    
 $ 4. NUMERICS
    
 PROP BSBT
    
 NUMERIC STOPC 0.005 0.005 0.005 95. STAT 15
    
 
    
 $ 5. OUTPUT
    
 POINTS 'DEEP' 80.0000 6.0000
    
 POINTS 'MID'  80.0500 6.0600
    
 POINTS 'SURF' 80.0900 6.1200
    
 
    
 $ CHANGE: Output every 3 Hours now
    
 TABLE 'DEEP' HEAD 'deep_forecast.tbl' HS TPS DIR DEPTH QB OUTPUT 20251123.1500 3 HR
    
 TABLE 'MID'  HEAD 'mid_forecast.tbl'  HS TPS DIR DEPTH QB OUTPUT 20251123.1500 3 HR
    
 TABLE 'SURF' HEAD 'surf_forecast.tbl' HS TPS DIR DEPTH QB OUTPUT 20251123.1500 3 HR
    
 
    
 $ 6. RUN
    
 COMPUTE 20251123.1500 15 MIN 20251130.1500
 ** Warning          : Limiter is de-activated in case of no quadruplets
 Boundary data type TPAR processed, time:       54000.
 Boundary data type TPAR processed, time:       54000.
 Time of computation ->  20251123.151500      in sec:      54900.
 Boundary data type TPAR processed, time:       64800.
 Boundary data type TPAR processed, time:       64800.

----------------------------------------------------------------
                  COMPUTATIONAL PART OF SWAN
----------------------------------------------------------------

 Gridresolution       : MXC              48 MYC             48
                      : MCGRD          2132
                      : MSC              25 MDC             36
                      : MTC             672
                      : NSTATC            1 ITERMX           1
 Propagation flags    : ITFRE             1 IREFR            1
 Source term flags    : IBOT              1 ISURF            1
                      : IWCAP             0 IWIND            0
                      : ITRIAD            0 IQUAD            0
                      : IBRAG             0 IQCM             0
                      : IVEG              0 ITURBV           0
                      : IMUD              0 IICE             0
 Spatial step         : DX       0.4166E-02 DY      0.4166E-02
 Spectral bin         : df/f     0.1329E+00 DDIR    0.1000E+02
 Physical constants   : GRAV     0.9810E+01 RHO     0.1025E+04
 Wind input           : WSPEED   0.0000E+00 DIR     0.0000E+00
                      : ICEWIND  0.00
 Tail parameters      : E(f)     0.4000E+01 E(k)    0.2500E+01
                      : A(f)     0.5000E+01 A(k)    0.3000E+01
 Accuracy parameters  : DREL     0.5000E-02 NPNTS   0.9500E+02
                      : DHABS    0.5000E-02 CURVAT  0.5000E-02
                      : GRWMX    0.1000E+21
 Drying/flooding      : LEVEL    0.0000E+00 DEPMIN  0.5000E-01
 The Cartesian convention for wind and wave directions is used
 Scheme for geographic propagation is BSBT  
 Scheme geogr. space  : PROPSC            1 ICMAX            5
 Scheme spectral space: CSS      0.5000E+00 CDD     0.5000E+00
 Current is off
 Quadruplets is off
 Triads is off
 Bragg scattering is off
 QC scattering is off
 Surfbeat (IEM) is off
 JONSWAP (`73)        : GAMMA    0.6700E-01
 Vegetation is off
 Turbulence is off
 Fluid mud is off
 Dissipation by sea ice is off
 Whitecapping is off
 Battjes&Janssen (`78): ALPHA    0.1000E+01 GAMMA   0.7300E+00
 Set-up is off
 Diffraction is off
 Janssen (`89,`90)    : ALPHA    0.1000E-01 KAPPA   0.4100E+00
 Janssen (`89,`90)    : RHOA     0.1280E+01 RHOW    0.1025E+04

 1st and 2nd gen. wind: CF10     0.1880E+03 CF20    0.5900E+00
                      : CF30     0.1200E+00 CF40    0.2500E+03
                      : CF50     0.2300E-02 CF60   -0.2230E+00
                      : CF70     0.0000E+00 CF80   -0.5600E+00
                      : RHOAW    0.1249E-02 EDMLPM  0.3600E-02
                      : CDRAG    0.1230E-02 UMIN    0.1000E+01
                      : LIM_PM   0.1300E+00

 not possible to compute, first iteration

  ** WARNING : Differences in wave height at the boundary
 Relative difference between input and computation >=   0.10
                         Hs[m]      Hs[m]      Hs[-]
     ix    iy  index   (input) (computed) (relative)
  --------------------------------------------------
     1    48     49       1.11       0.84       0.24
     1    47     48       1.11       0.55       0.51
     1    46     47       1.11       0.44       0.60
     1    45     46       1.11       0.40       0.63
     1    44     45       1.11       0.39       0.65
     1    43     44       1.11       0.38       0.66
     1    42     43       1.11       0.37       0.66
     1    41     42       1.11       0.37       0.66
     1    40     41       1.11       0.37       0.66
     1    39     40       1.11       0.37       0.67
     1    38     39       1.11       0.37       0.67
     1    37     38       1.11       0.37       0.67
     1    36     37       1.11       0.37       0.67
     1    35     36       1.11       0.37       0.67
     1    34     35       1.11       0.37       0.66
     1    33     34       1.11       0.37       0.66
     1    32     33       1.11       0.37       0.66
     1    31     32       1.11       0.37       0.66
     1    30     31       1.11       0.37       0.66
     1    29     30       1.11       0.37       0.66
     1    28     29       1.11       0.37       0.66
     1    27     28       1.11       0.38       0.66
     1    26     27       1.11       0.38       0.66
     1    25     26       1.11       0.38       0.66
     1    24     25       1.11       0.38       0.66
     1    23     24       1.11       0.38       0.66
     1    22     23       1.11       0.38       0.65
     1    21     22       1.11       0.39       0.65
     1    20     21       1.11       0.39       0.65
     1    19     20       1.11       0.39       0.65
     1    18     19       1.11       0.40       0.64
     1    17     18       1.11       0.40       0.64
     1    16     17       1.11       0.41       0.63
     1    15     16       1.11       0.41       0.63
     1    14     15       1.11       0.42       0.62
     1    13     14       1.11       0.43       0.61
     1    12     13       1.11       0.44       0.60
     1    11     12       1.11       0.45       0.59
     1    10     11       1.11       0.46       0.58
     1     9     10       1.11       0.48       0.57
     1     8      9       1.11       0.50       0.55
     1     7      8       1.11       0.52       0.53
     1     6      7       1.11       0.55       0.50
     1     5      6       1.11       0.58       0.47
     1     4      5       1.11       0.62       0.44
     1     3      4       1.11       0.67       0.39
     1     2      3       1.11       0.73       0.34
     1     1      2       1.11       0.88       0.20
     2     1     50       1.11       0.87       0.22
     3     1     98       1.11       0.87       0.22
     4     1    146       1.11       0.87       0.22
     5     1    194       1.11       0.87       0.22
     6     1    242       1.11       0.87       0.22
     7     1    290       1.11       0.87       0.21
     8     1    338       1.11       0.87       0.21
     9     1    386       1.11       0.87       0.21
    10     1    434       1.11       0.87       0.21
    11     1    482       1.11       0.87       0.21
    12     1    530       1.11       0.87       0.21
    13     1    578       1.11       0.87       0.21
    14     1    626       1.11       0.87       0.21
    15     1    674       1.11       0.87       0.21
    16     1    722       1.11       0.87       0.21
    17     1    770       1.11       0.87       0.21
    18     1    818       1.11       0.87       0.21
    19     1    866       1.11       0.88       0.21
    20     1    914       1.11       0.88       0.21
    21     1    962       1.11       0.88       0.20
    22     1   1010       1.11       0.88       0.20
    23     1   1058       1.11       0.88       0.20
    24     1   1106       1.11       0.88       0.20
    25     1   1154       1.11       0.89       0.19
    26     1   1202       1.11       0.92       0.16
    28     1   1298       1.11       0.76       0.31
    29     1   1346       1.11       0.76       0.31
    30     1   1394       1.11       0.76       0.31
    31     1   1442       1.11       0.76       0.31
    32     1   1490       1.11       0.77       0.30

 Time of computation ->  20251123.153000      in sec:      55800.
 not possible to compute, first iteration

  ** WARNING : Differences in wave height at the boundary
 Relative difference between input and computation >=   0.10
                         Hs[m]      Hs[m]      Hs[-]
     ix    iy  index   (input) (computed) (relative)
  --------------------------------------------------
     1    48     49       1.11       0.84       0.25
     1    47     48       1.11       0.54       0.51
     1    46     47       1.11       0.44       0.60
     1    45     46       1.11       0.40       0.63
     1    44     45       1.11       0.39       0.65
     1    43     44       1.11       0.38       0.66
     1    42     43       1.11       0.38       0.66
     1    41     42       1.11       0.38       0.66
     1    40     41       1.11       0.37       0.66
     1    39     40       1.11       0.37       0.66
     1    38     39       1.11       0.38       0.66
     1    37     38       1.11       0.38       0.66
     1    36     37       1.11       0.38       0.66
     1    35     36       1.11       0.38       0.66
     1    34     35       1.11       0.38       0.66
     1    33     34       1.11       0.38       0.66
     1    32     33       1.11       0.38       0.66
     1    31     32       1.11       0.38       0.65
     1    30     31       1.11       0.39       0.65
     1    29     30       1.11       0.39       0.65
     1    28     29       1.11       0.39       0.65
     1    27     28       1.11       0.39       0.65
     1    26     27       1.11       0.40       0.64
     1    25     26       1.11       0.40       0.64
     1    24     25       1.11       0.41       0.63
     1    23     24       1.11       0.41       0.63
     1    22     23       1.11       0.41       0.63
     1    21     22       1.11       0.42       0.62
     1    20     21       1.11       0.43       0.61
     1    19     20       1.11       0.44       0.61
     1    18     19       1.11       0.44       0.60
     1    17     18       1.11       0.45       0.59
     1    16     17       1.11       0.46       0.58
     1    15     16       1.11       0.48       0.57
     1    14     15       1.11       0.49       0.56
     1    13     14       1.11       0.50       0.55
     1    12     13       1.11       0.52       0.53
     1    11     12       1.11       0.54       0.52
     1    10     11       1.11       0.55       0.50
     1     9     10       1.11       0.58       0.48
     1     8      9       1.11       0.60       0.46
     1     7      8       1.11       0.62       0.44
     1     6      7       1.11       0.65       0.41
     1     5      6       1.11       0.68       0.39
     1     4      5       1.11       0.71       0.36
     1     3      4       1.11       0.75       0.32
     1     2      3       1.11       0.79       0.29
     1     1      2       1.11       0.89       0.20
     2     1     50       1.11       0.88       0.21
     3     1     98       1.11       0.88       0.21
     4     1    146       1.11       0.88       0.21
     5     1    194       1.11       0.88       0.21
     6     1    242       1.11       0.88       0.21
     7     1    290       1.11       0.88       0.21
     8     1    338       1.11       0.88       0.21
     9     1    386       1.11       0.88       0.21
    10     1    434       1.11       0.88       0.21
    11     1    482       1.11       0.88       0.21
    12     1    530       1.11       0.88       0.21
    13     1    578       1.11       0.88       0.21
    14     1    626       1.11       0.88       0.21
    15     1    674       1.11       0.88       0.20
    16     1    722       1.11       0.88       0.20
    17     1    770       1.11       0.88       0.20
    18     1    818       1.11       0.88       0.20
    19     1    866       1.11       0.89       0.20
    20     1    914       1.11       0.89       0.20
    21     1    962       1.11       0.89       0.20
    22     1   1010       1.11       0.89       0.20
    23     1   1058       1.11       0.89       0.20
    24     1   1106       1.11       0.89       0.19
    25     1   1154       1.11       0.90       0.19
    26     1   1202       1.11       0.93       0.16
    28     1   1298       1.11       0.78       0.30
    29     1   1346       1.11       0.78       0.30
    30     1   1394       1.11       0.78       0.30
    31     1   1442       1.11       0.77       0.30
    32     1   1490       1.11       0.78       0.29

 Time of computation ->  20251123.154500      in sec:      56700.
 not possible to compute, first iteration

  ** WARNING : Differences in wave height at the boundary
 Relative difference between input and computation >=   0.10
                         Hs[m]      Hs[m]      Hs[-]
     ix    iy  index   (input) (computed) (relative)
  --------------------------------------------------
     1    48     49       1.11       0.83       0.25
     1    47     48       1.11       0.54       0.51
     1    46     47       1.11       0.45       0.60
     1    45     46       1.11       0.41       0.63
     1    44     45       1.11       0.39       0.65
     1    43     44       1.11       0.39       0.65
     1    42     43       1.11       0.38       0.66
     1    41     42       1.11       0.38       0.66
     1    40     41       1.11       0.38       0.66
     1    39     40       1.11       0.38       0.66
     1    38     39       1.11       0.38       0.65
     1    37     38       1.11       0.39       0.65
     1    36     37       1.11       0.39       0.65
     1    35     36       1.11       0.39       0.65
     1    34     35       1.11       0.39       0.65
     1    33     34       1.11       0.39       0.65
     1    32     33       1.11       0.40       0.64
     1    31     32       1.11       0.40       0.64
     1    30     31       1.11       0.40       0.64
     1    29     30       1.11       0.41       0.63
     1    28     29       1.11       0.41       0.63
     1    27     28       1.11       0.42       0.62
     1    26     27       1.11       0.42       0.62
     1    25     26       1.11       0.43       0.61
     1    24     25       1.11       0.43       0.61
     1    23     24       1.11       0.44       0.60
     1    22     23       1.11       0.45       0.60
     1    21     22       1.11       0.46       0.59
     1    20     21       1.11       0.47       0.58
     1    19     20       1.11       0.48       0.57
     1    18     19       1.11       0.49       0.56
     1    17     18       1.11       0.50       0.55
     1    16     17       1.11       0.51       0.54
     1    15     16       1.11       0.53       0.53
     1    14     15       1.11       0.54       0.51
     1    13     14       1.11       0.56       0.50
     1    12     13       1.11       0.58       0.48
     1    11     12       1.11       0.59       0.47
     1    10     11       1.11       0.61       0.45
     1     9     10       1.11       0.63       0.43
     1     8      9       1.11       0.66       0.41
     1     7      8       1.11       0.68       0.39
     1     6      7       1.11       0.70       0.37
     1     5      6       1.11       0.73       0.35
     1     4      5       1.11       0.75       0.32
     1     3      4       1.11       0.78       0.29
     1     2      3       1.11       0.81       0.27
     1     1      2       1.11       0.90       0.19
     2     1     50       1.11       0.88       0.20
     3     1     98       1.11       0.89       0.20
     4     1    146       1.11       0.89       0.20
     5     1    194       1.11       0.89       0.20
     6     1    242       1.11       0.89       0.20
     7     1    290       1.11       0.89       0.20
     8     1    338       1.11       0.89       0.20
     9     1    386       1.11       0.89       0.20
    10     1    434       1.11       0.89       0.20
    11     1    482       1.11       0.89       0.20
    12     1    530       1.11       0.89       0.20
    13     1    578       1.11       0.89       0.20
    14     1    626       1.11       0.89       0.20
    15     1    674       1.11       0.89       0.20
    16     1    722       1.11       0.89       0.20
    17     1    770       1.11       0.89       0.20
    18     1    818       1.11       0.89       0.20
    19     1    866       1.11       0.89       0.19
    20     1    914       1.11       0.90       0.19
    21     1    962       1.11       0.90       0.19
    22     1   1010       1.11       0.90       0.19
    23     1   1058       1.11       0.90       0.19
    24     1   1106       1.11       0.90       0.19
    25     1   1154       1.11       0.91       0.18
    26     1   1202       1.11       0.94       0.15
    28     1   1298       1.11       0.79       0.29
    29     1   1346       1.11       0.79       0.29
    30     1   1394       1.11       0.79       0.29
    31     1   1442       1.11       0.79       0.29
    32     1   1490       1.11       0.79       0.29

 Time of computation ->  20251123.160000      in sec:      57600.
 not possible to compute, first iteration

  ** WARNING : Differences in wave height at the boundary
 Relative difference between input and computation >=   0.10
                         Hs[m]      Hs[m]      Hs[-]
     ix    iy  index   (input) (computed) (relative)
  --------------------------------------------------
     1    48     49       1.11       0.83       0.25
     1    47     48       1.11       0.54       0.51
     1    46     47       1.11       0.45       0.60
     1    45     46       1.11       0.41       0.63
     1    44     45       1.11       0.40       0.64
     1    43     44       1.11       0.39       0.65
     1    42     43       1.11       0.39       0.65
     1    41     42       1.11       0.39       0.65
     1    40     41       1.11       0.39       0.65
     1    39     40       1.11       0.39       0.65
     1    38     39       1.11       0.39       0.65
     1    37     38       1.11       0.40       0.64
     1    36     37       1.11       0.40       0.64
     1    35     36       1.11       0.40       0.64
     1    34     35       1.11       0.41       0.64
     1    33     34       1.11       0.41       0.63
     1    32     33       1.11       0.41       0.63
     1    31     32       1.11       0.42       0.62
     1    30     31       1.11       0.42       0.62
     1    29     30       1.11       0.43       0.62
     1    28     29       1.11       0.43       0.61
     1    27     28       1.11       0.44       0.61
     1    26     27       1.11       0.45       0.60
     1    25     26       1.11       0.45       0.59
     1    24     25       1.11       0.46       0.59
     1    23     24       1.11       0.47       0.58
     1    22     23       1.11       0.48       0.57
     1    21     22       1.11       0.49       0.56
     1    20     21       1.11       0.50       0.55
     1    19     20       1.11       0.51       0.54
     1    18     19       1.11       0.52       0.53
     1    17     18       1.11       0.53       0.52
     1    16     17       1.11       0.55       0.51
     1    15     16       1.11       0.56       0.49
     1    14     15       1.11       0.58       0.48
     1    13     14       1.11       0.59       0.47
     1    12     13       1.11       0.61       0.45
     1    11     12       1.11       0.63       0.44
     1    10     11       1.11       0.65       0.42
     1     9     10       1.11       0.67       0.40
     1     8      9       1.11       0.69       0.38
     1     7      8       1.11       0.71       0.36
     1     6      7       1.11       0.73       0.35
     1     5      6       1.11       0.75       0.33
     1     4      5       1.11       0.78       0.30
     1     3      4       1.11       0.80       0.28
     1     2      3       1.11       0.83       0.26
     1     1      2       1.11       0.90       0.19
     2     1     50       1.11       0.89       0.20
     3     1     98       1.11       0.89       0.20
     4     1    146       1.11       0.89       0.20
     5     1    194       1.11       0.89       0.20
     6     1    242       1.11       0.89       0.20
     7     1    290       1.11       0.89       0.20
     8     1    338       1.11       0.89       0.20
     9     1    386       1.11       0.89       0.20
    10     1    434       1.11       0.90       0.20
    11     1    482       1.11       0.90       0.20
    12     1    530       1.11       0.90       0.20
    13     1    578       1.11       0.90       0.20
    14     1    626       1.11       0.90       0.19
    15     1    674       1.11       0.90       0.19
    16     1    722       1.11       0.90       0.19
    17     1    770       1.11       0.90       0.19
    18     1    818       1.11       0.90       0.19
    19     1    866       1.11       0.90       0.19
    20     1    914       1.11       0.90       0.19
    21     1    962       1.11       0.91       0.19
    22     1   1010       1.11       0.91       0.19
    23     1   1058       1.11       0.91       0.19
    24     1   1106       1.11       0.91       0.19
    25     1   1154       1.11       0.92       0.18
    26     1   1202       1.11       0.95       0.15
    28     1   1298       1.11       0.80       0.29
    29     1   1346       1.11       0.79       0.29
    30     1   1394       1.11       0.79       0.29
    31     1   1442       1.11       0.79       0.29
    32     1   1490       1.11       0.80       0.28

 Time of computation ->  20251123.161500      in sec:      58500.
 not possible to compute, first iteration

  ** WARNING : Differences in wave height at the boundary
 Relative difference between input and computation >=   0.10
                         Hs[m]      Hs[m]      Hs[-]
     ix    iy  index   (input) (computed) (relative)
  --------------------------------------------------
     1    48     49       1.12       0.83       0.26
     1    47     48       1.12       0.55       0.51
     1    46     47       1.12       0.45       0.59
     1    45     46       1.12       0.42       0.63
     1    44     45       1.12       0.41       0.64
     1    43     44       1.12       0.40       0.64
     1    42     43       1.12       0.40       0.64
     1    41     42       1.12       0.40       0.64
     1    40     41       1.12       0.40       0.64
     1    39     40       1.12       0.40       0.64
     1    38     39       1.12       0.41       0.64
     1    37     38       1.12       0.41       0.63
     1    36     37       1.12       0.41       0.63
     1    35     36       1.12       0.42       0.63
     1    34     35       1.12       0.42       0.62
     1    33     34       1.12       0.42       0.62
     1    32     33       1.12       0.43       0.62
     1    31     32       1.12       0.43       0.61
     1    30     31       1.12       0.44       0.61
     1    29     30       1.12       0.44       0.60
     1    28     29       1.12       0.45       0.60
     1    27     28       1.12       0.46       0.59
     1    26     27       1.12       0.46       0.58
     1    25     26       1.12       0.47       0.58
     1    24     25       1.12       0.48       0.57
     1    23     24       1.12       0.49       0.56
     1    22     23       1.12       0.50       0.55
     1    21     22       1.12       0.51       0.54
     1    20     21       1.12       0.52       0.53
     1    19     20       1.12       0.53       0.52
     1    18     19       1.12       0.54       0.51
     1    17     18       1.12       0.56       0.50
     1    16     17       1.12       0.57       0.49
     1    15     16       1.12       0.59       0.48
     1    14     15       1.12       0.60       0.46
     1    13     14       1.12       0.62       0.45
     1    12     13       1.12       0.63       0.43
     1    11     12       1.12       0.65       0.42
     1    10     11       1.12       0.67       0.40
     1     9     10       1.12       0.69       0.38
     1     8      9       1.12       0.71       0.37
     1     7      8       1.12       0.73       0.35
     1     6      7       1.12       0.75       0.33
     1     5      6       1.12       0.77       0.31
     1     4      5       1.12       0.79       0.29
     1     3      4       1.12       0.82       0.27
     1     2      3       1.12       0.84       0.25
     1     1      2       1.12       0.91       0.18
     2     1     50       1.12       0.90       0.19
     3     1     98       1.12       0.90       0.19
     4     1    146       1.12       0.90       0.19
     5     1    194       1.12       0.90       0.19
     6     1    242       1.12       0.90       0.19
     7     1    290       1.12       0.90       0.19
     8     1    338       1.12       0.90       0.19
     9     1    386       1.12       0.90       0.19
    10     1    434       1.12       0.90       0.19
    11     1    482       1.12       0.90       0.19
    12     1    530       1.12       0.90       0.19
    13     1    578       1.12       0.90       0.19
    14     1    626       1.12       0.90       0.19
    15     1    674       1.12       0.91       0.19
    16     1    722       1.12       0.91       0.19
    17     1    770       1.12       0.91       0.19
    18     1    818       1.12       0.91       0.19
    19     1    866       1.12       0.91       0.19
    20     1    914       1.12       0.91       0.18
    21     1    962       1.12       0.91       0.18
    22     1   1010       1.12       0.91       0.18
    23     1   1058       1.12       0.91       0.18
    24     1   1106       1.12       0.91       0.18
    25     1   1154       1.12       0.92       0.17
    26     1   1202       1.12       0.95       0.15
    28     1   1298       1.12       0.80       0.28
    29     1   1346       1.12       0.80       0.28
    30     1   1394       1.12       0.80       0.28
    31     1   1442       1.12       0.80       0.28
    32     1   1490       1.12       0.81       0.27

 Time of computation ->  20251123.163000      in sec:      59400.
 not possible to compute, first iteration

  ** WARNING : Differences in wave height at the boundary
 Relative difference between input and computation >=   0.10
                         Hs[m]      Hs[m]      Hs[-]
     ix    iy  index   (input) (computed) (relative)
  --------------------------------------------------
     1    48     49       1.12       0.83       0.26
     1    47     48       1.12       0.55       0.51
     1    46     47       1.12       0.46       0.59
     1    45     46       1.12       0.42       0.62
     1    44     45       1.12       0.41       0.63
     1    43     44       1.12       0.41       0.64
     1    42     43       1.12       0.41       0.64
     1    41     42       1.12       0.41       0.64
     1    40     41       1.12       0.41       0.63
     1    39     40       1.12       0.41       0.63
     1    38     39       1.12       0.41       0.63
     1    37     38       1.12       0.42       0.63
     1    36     37       1.12       0.42       0.62
     1    35     36       1.12       0.43       0.62
     1    34     35       1.12       0.43       0.62
     1    33     34       1.12       0.43       0.61
     1    32     33       1.12       0.44       0.61
     1    31     32       1.12       0.45       0.60
     1    30     31       1.12       0.45       0.60
     1    29     30       1.12       0.46       0.59
     1    28     29       1.12       0.46       0.59
     1    27     28       1.12       0.47       0.58
     1    26     27       1.12       0.48       0.57
     1    25     26       1.12       0.49       0.57
     1    24     25       1.12       0.49       0.56
     1    23     24       1.12       0.50       0.55
     1    22     23       1.12       0.51       0.54
     1    21     22       1.12       0.52       0.53
     1    20     21       1.12       0.53       0.52
     1    19     20       1.12       0.55       0.51
     1    18     19       1.12       0.56       0.50
     1    17     18       1.12       0.57       0.49
     1    16     17       1.12       0.59       0.48
     1    15     16       1.12       0.60       0.46
     1    14     15       1.12       0.62       0.45
     1    13     14       1.12       0.63       0.44
     1    12     13       1.12       0.65       0.42
     1    11     12       1.12       0.66       0.41
     1    10     11       1.12       0.68       0.39
     1     9     10       1.12       0.70       0.37
     1     8      9       1.12       0.72       0.36
     1     7      8       1.12       0.74       0.34
     1     6      7       1.12       0.76       0.32
     1     5      6       1.12       0.78       0.31
     1     4      5       1.12       0.80       0.28
     1     3      4       1.12       0.83       0.26
     1     2      3       1.12       0.85       0.24
     1     1      2       1.12       0.92       0.18
     2     1     50       1.12       0.91       0.19
     3     1     98       1.12       0.91       0.19
     4     1    146       1.12       0.91       0.19
     5     1    194       1.12       0.91       0.19
     6     1    242       1.12       0.91       0.19
     7     1    290       1.12       0.91       0.19
     8     1    338       1.12       0.91       0.19
     9     1    386       1.12       0.91       0.19
    10     1    434       1.12       0.91       0.19
    11     1    482       1.12       0.91       0.19
    12     1    530       1.12       0.91       0.19
    13     1    578       1.12       0.91       0.19
    14     1    626       1.12       0.91       0.19
    15     1    674       1.12       0.91       0.19
    16     1    722       1.12       0.91       0.19
    17     1    770       1.12       0.91       0.18
    18     1    818       1.12       0.91       0.18
    19     1    866       1.12       0.92       0.18
    20     1    914       1.12       0.92       0.18
    21     1    962       1.12       0.92       0.18
    22     1   1010       1.12       0.92       0.18
    23     1   1058       1.12       0.92       0.18
    24     1   1106       1.12       0.92       0.18
    25     1   1154       1.12       0.93       0.17
    26     1   1202       1.12       0.96       0.14
    28     1   1298       1.12       0.81       0.27
    29     1   1346       1.12       0.81       0.27
    30     1   1394       1.12       0.81       0.27
    31     1   1442       1.12       0.81       0.27
    32     1   1490       1.12       0.82       0.27

 Time of computation ->  20251123.164500      in sec:      60300.
 not possible to compute, first iteration

  ** WARNING : Differences in wave height at the boundary
 Relative difference between input and computation >=   0.10
                         Hs[m]      Hs[m]      Hs[-]
     ix    iy  index   (input) (computed) (relative)
  --------------------------------------------------
     1    48     49       1.12       0.83       0.26
     1    47     48       1.12       0.55       0.51
     1    46     47       1.12       0.46       0.59
     1    45     46       1.12       0.43       0.62
     1    44     45       1.12       0.42       0.63
     1    43     44       1.12       0.41       0.63
     1    42     43       1.12       0.41       0.63
     1    41     42       1.12       0.41       0.63
     1    40     41       1.12       0.42       0.63
     1    39     40       1.12       0.42       0.63
     1    38     39       1.12       0.42       0.62
     1    37     38       1.12       0.43       0.62
     1    36     37       1.12       0.43       0.62
     1    35     36       1.12       0.43       0.61
     1    34     35       1.12       0.44       0.61
     1    33     34       1.12       0.44       0.60
     1    32     33       1.12       0.45       0.60
     1    31     32       1.12       0.45       0.60
     1    30     31       1.12       0.46       0.59
     1    29     30       1.12       0.47       0.58
     1    28     29       1.12       0.47       0.58
     1    27     28       1.12       0.48       0.57
     1    26     27       1.12       0.49       0.56
     1    25     26       1.12       0.50       0.56
     1    24     25       1.12       0.51       0.55
     1    23     24       1.12       0.51       0.54
     1    22     23       1.12       0.52       0.53
     1    21     22       1.12       0.53       0.52
     1    20     21       1.12       0.55       0.51
     1    19     20       1.12       0.56       0.50
     1    18     19       1.12       0.57       0.49
     1    17     18       1.12       0.58       0.48
     1    16     17       1.12       0.60       0.47
     1    15     16       1.12       0.61       0.45
     1    14     15       1.12       0.63       0.44
     1    13     14       1.12       0.64       0.43
     1    12     13       1.12       0.66       0.41
     1    11     12       1.12       0.68       0.40
     1    10     11       1.12       0.69       0.38
     1     9     10       1.12       0.71       0.37
     1     8      9       1.12       0.73       0.35
     1     7      8       1.12       0.75       0.33
     1     6      7       1.12       0.77       0.32
     1     5      6       1.12       0.79       0.30
     1     4      5       1.12       0.81       0.28
     1     3      4       1.12       0.83       0.26
     1     2      3       1.12       0.85       0.24
     1     1      2       1.12       0.92       0.18
     2     1     50       1.12       0.91       0.19
     3     1     98       1.12       0.91       0.19
     4     1    146       1.12       0.91       0.19
     5     1    194       1.12       0.91       0.19
     6     1    242       1.12       0.91       0.19
     7     1    290       1.12       0.91       0.19
     8     1    338       1.12       0.91       0.18
     9     1    386       1.12       0.92       0.18
    10     1    434       1.12       0.92       0.18
    11     1    482       1.12       0.92       0.18
    12     1    530       1.12       0.92       0.18
    13     1    578       1.12       0.92       0.18
    14     1    626       1.12       0.92       0.18
    15     1    674       1.12       0.92       0.18
    16     1    722       1.12       0.92       0.18
    17     1    770       1.12       0.92       0.18
    18     1    818       1.12       0.92       0.18
    19     1    866       1.12       0.92       0.18
    20     1    914       1.12       0.92       0.18
    21     1    962       1.12       0.93       0.17
    22     1   1010       1.12       0.93       0.17
    23     1   1058       1.12       0.93       0.17
    24     1   1106       1.12       0.93       0.17
    25     1   1154       1.12       0.94       0.17
    26     1   1202       1.12       0.96       0.14
    28     1   1298       1.12       0.82       0.27
    29     1   1346       1.12       0.82       0.27
    30     1   1394       1.12       0.82       0.27
    31     1   1442       1.12       0.82       0.27
    32     1   1490       1.12       0.83       0.26

 Time of computation ->  20251123.170000      in sec:      61200.
 not possible to compute, first iteration

  ** WARNING : Differences in wave height at the boundary
 Relative difference between input and computation >=   0.10
                         Hs[m]      Hs[m]      Hs[-]
     ix    iy  index   (input) (computed) (relative)
  --------------------------------------------------
     1    48     49       1.12       0.82       0.27
     1    47     48       1.12       0.55       0.51
     1    46     47       1.12       0.46       0.59
     1    45     46       1.12       0.43       0.62
     1    44     45       1.12       0.42       0.63
     1    43     44       1.12       0.42       0.63
     1    42     43       1.12       0.42       0.63
     1    41     42       1.12       0.42       0.63
     1    40     41       1.12       0.42       0.63
     1    39     40       1.12       0.42       0.62
     1    38     39       1.12       0.43       0.62
     1    37     38       1.12       0.43       0.62
     1    36     37       1.12       0.44       0.61
     1    35     36       1.12       0.44       0.61
     1    34     35       1.12       0.45       0.60
     1    33     34       1.12       0.45       0.60
     1    32     33       1.12       0.46       0.59
     1    31     32       1.12       0.46       0.59
     1    30     31       1.12       0.47       0.58
     1    29     30       1.12       0.47       0.58
     1    28     29       1.12       0.48       0.57
     1    27     28       1.12       0.49       0.57
     1    26     27       1.12       0.50       0.56
     1    25     26       1.12       0.50       0.55
     1    24     25       1.12       0.51       0.54
     1    23     24       1.12       0.52       0.53
     1    22     23       1.12       0.53       0.53
     1    21     22       1.12       0.54       0.52
     1    20     21       1.12       0.55       0.51
     1    19     20       1.12       0.57       0.50
     1    18     19       1.12       0.58       0.49
     1    17     18       1.12       0.59       0.47
     1    16     17       1.12       0.61       0.46
     1    15     16       1.12       0.62       0.45
     1    14     15       1.12       0.63       0.44
     1    13     14       1.12       0.65       0.42
     1    12     13       1.12       0.67       0.41
     1    11     12       1.12       0.68       0.39
     1    10     11       1.12       0.70       0.38
     1     9     10       1.12       0.72       0.36
     1     8      9       1.12       0.74       0.34
     1     7      8       1.12       0.75       0.33
     1     6      7       1.12       0.77       0.31
     1     5      6       1.12       0.79       0.29
     1     4      5       1.12       0.82       0.27
     1     3      4       1.12       0.84       0.25
     1     2      3       1.12       0.86       0.23
     1     1      2       1.12       0.93       0.17
     2     1     50       1.12       0.92       0.18
     3     1     98       1.12       0.92       0.18
     4     1    146       1.12       0.92       0.18
     5     1    194       1.12       0.92       0.18
     6     1    242       1.12       0.92       0.18
     7     1    290       1.12       0.92       0.18
     8     1    338       1.12       0.92       0.18
     9     1    386       1.12       0.92       0.18
    10     1    434       1.12       0.92       0.18
    11     1    482       1.12       0.92       0.18
    12     1    530       1.12       0.92       0.18
    13     1    578       1.12       0.92       0.18
    14     1    626       1.12       0.92       0.18
    15     1    674       1.12       0.92       0.18
    16     1    722       1.12       0.92       0.18
    17     1    770       1.12       0.93       0.18
    18     1    818       1.12       0.93       0.18
    19     1    866       1.12       0.93       0.17
    20     1    914       1.12       0.93       0.17
    21     1    962       1.12       0.93       0.17
    22     1   1010       1.12       0.93       0.17
    23     1   1058       1.12       0.93       0.17
    24     1   1106       1.12       0.93       0.17
    25     1   1154       1.12       0.94       0.16
    26     1   1202       1.12       0.97       0.14
    28     1   1298       1.12       0.83       0.26
    29     1   1346       1.12       0.83       0.26
    30     1   1394       1.12       0.83       0.26
    31     1   1442       1.12       0.83       0.26
    32     1   1490       1.12       0.83       0.26

 Time of computation ->  20251123.171500      in sec:      62100.
 not possible to compute, first iteration

  ** WARNING : Differences in wave height at the boundary
 Relative difference between input and computation >=   0.10
                         Hs[m]      Hs[m]      Hs[-]
     ix    iy  index   (input) (computed) (relative)
  --------------------------------------------------
     1    48     49       1.13       0.82       0.27
     1    47     48       1.13       0.55       0.51
     1    46     47       1.13       0.46       0.59
     1    45     46       1.13       0.43       0.61
     1    44     45       1.13       0.42       0.62
     1    43     44       1.13       0.42       0.63
     1    42     43       1.13       0.42       0.63
     1    41     42       1.13       0.42       0.62
     1    40     41       1.13       0.43       0.62
     1    39     40       1.13       0.43       0.62
     1    38     39       1.13       0.43       0.62
     1    37     38       1.13       0.44       0.61
     1    36     37       1.13       0.44       0.61
     1    35     36       1.13       0.45       0.60
     1    34     35       1.13       0.45       0.60
     1    33     34       1.13       0.46       0.60
     1    32     33       1.13       0.46       0.59
     1    31     32       1.13       0.47       0.59
     1    30     31       1.13       0.47       0.58
     1    29     30       1.13       0.48       0.57
     1    28     29       1.13       0.49       0.57
     1    27     28       1.13       0.49       0.56
     1    26     27       1.13       0.50       0.55
     1    25     26       1.13       0.51       0.55
     1    24     25       1.13       0.52       0.54
     1    23     24       1.13       0.53       0.53
     1    22     23       1.13       0.54       0.52
     1    21     22       1.13       0.55       0.51
     1    20     21       1.13       0.56       0.50
     1    19     20       1.13       0.57       0.49
     1    18     19       1.13       0.59       0.48
     1    17     18       1.13       0.60       0.47
     1    16     17       1.13       0.61       0.46
     1    15     16       1.13       0.63       0.44
     1    14     15       1.13       0.64       0.43
     1    13     14       1.13       0.66       0.42
     1    12     13       1.13       0.67       0.40
     1    11     12       1.13       0.69       0.39
     1    10     11       1.13       0.71       0.37
     1     9     10       1.13       0.73       0.36
     1     8      9       1.13       0.74       0.34
     1     7      8       1.13       0.76       0.32
     1     6      7       1.13       0.78       0.31
     1     5      6       1.13       0.80       0.29
     1     4      5       1.13       0.82       0.27
     1     3      4       1.13       0.85       0.25
     1     2      3       1.13       0.87       0.23
     1     1      2       1.13       0.93       0.17
     2     1     50       1.13       0.92       0.18
     3     1     98       1.13       0.92       0.18
     4     1    146       1.13       0.92       0.18
     5     1    194       1.13       0.93       0.18
     6     1    242       1.13       0.93       0.18
     7     1    290       1.13       0.93       0.18
     8     1    338       1.13       0.93       0.18
     9     1    386       1.13       0.93       0.18
    10     1    434       1.13       0.93       0.18
    11     1    482       1.13       0.93       0.18
    12     1    530       1.13       0.93       0.18
    13     1    578       1.13       0.93       0.18
    14     1    626       1.13       0.93       0.17
    15     1    674       1.13       0.93       0.17
    16     1    722       1.13       0.93       0.17
    17     1    770       1.13       0.93       0.17
    18     1    818       1.13       0.93       0.17
    19     1    866       1.13       0.93       0.17
    20     1    914       1.13       0.94       0.17
    21     1    962       1.13       0.94       0.17
    22     1   1010       1.13       0.94       0.17
    23     1   1058       1.13       0.94       0.17
    24     1   1106       1.13       0.94       0.17
    25     1   1154       1.13       0.95       0.16
    26     1   1202       1.13       0.97       0.14
    28     1   1298       1.13       0.84       0.26
    29     1   1346       1.13       0.84       0.26
    30     1   1394       1.13       0.84       0.26
    31     1   1442       1.13       0.84       0.26
    32     1   1490       1.13       0.84       0.25

 Time of computation ->  20251123.173000      in sec:      63000.
 not possible to compute, first iteration

  ** WARNING : Differences in wave height at the boundary
 Relative difference between input and computation >=   0.10
                         Hs[m]      Hs[m]      Hs[-]
     ix    iy  index   (input) (computed) (relative)
  --------------------------------------------------
     1    48     49       1.13       0.82       0.27
     1    47     48       1.13       0.55       0.51
     1    46     47       1.13       0.47       0.59
     1    45     46       1.13       0.44       0.61
     1    44     45       1.13       0.43       0.62
     1    43     44       1.13       0.42       0.62
     1    42     43       1.13       0.42       0.62
     1    41     42       1.13       0.43       0.62
     1    40     41       1.13       0.43       0.62
     1    39     40       1.13       0.43       0.62
     1    38     39       1.13       0.44       0.61
     1    37     38       1.13       0.44       0.61
     1    36     37       1.13       0.44       0.61
     1    35     36       1.13       0.45       0.60
     1    34     35       1.13       0.45       0.60
     1    33     34       1.13       0.46       0.59
     1    32     33       1.13       0.47       0.59
     1    31     32       1.13       0.47       0.58
     1    30     31       1.13       0.48       0.58
     1    29     30       1.13       0.48       0.57
     1    28     29       1.13       0.49       0.56
     1    27     28       1.13       0.50       0.56
     1    26     27       1.13       0.51       0.55
     1    25     26       1.13       0.52       0.54
     1    24     25       1.13       0.53       0.53
     1    23     24       1.13       0.53       0.53
     1    22     23       1.13       0.54       0.52
     1    21     22       1.13       0.55       0.51
     1    20     21       1.13       0.57       0.50
     1    19     20       1.13       0.58       0.49
     1    18     19       1.13       0.59       0.48
     1    17     18       1.13       0.60       0.46
     1    16     17       1.13       0.62       0.45
     1    15     16       1.13       0.63       0.44
     1    14     15       1.13       0.65       0.43
     1    13     14       1.13       0.66       0.41
     1    12     13       1.13       0.68       0.40
     1    11     12       1.13       0.70       0.38
     1    10     11       1.13       0.71       0.37
     1     9     10       1.13       0.73       0.35
     1     8      9       1.13       0.75       0.33
     1     7      8       1.13       0.77       0.32
     1     6      7       1.13       0.79       0.30
     1     5      6       1.13       0.81       0.28
     1     4      5       1.13       0.83       0.26
     1     3      4       1.13       0.85       0.24
     1     2      3       1.13       0.87       0.23
     1     1      2       1.13       0.94       0.17
     2     1     50       1.13       0.93       0.18
     3     1     98       1.13       0.93       0.18
     4     1    146       1.13       0.93       0.18
     5     1    194       1.13       0.93       0.17
     6     1    242       1.13       0.93       0.17
     7     1    290       1.13       0.93       0.17
     8     1    338       1.13       0.93       0.17
     9     1    386       1.13       0.93       0.17
    10     1    434       1.13       0.93       0.17
    11     1    482       1.13       0.93       0.17
    12     1    530       1.13       0.93       0.17
    13     1    578       1.13       0.93       0.17
    14     1    626       1.13       0.93       0.17
    15     1    674       1.13       0.93       0.17
    16     1    722       1.13       0.94       0.17
    17     1    770       1.13       0.94       0.17
    18     1    818       1.13       0.94       0.17
    19     1    866       1.13       0.94       0.17
    20     1    914       1.13       0.94       0.17
    21     1    962       1.13       0.94       0.16
    22     1   1010       1.13       0.94       0.16
    23     1   1058       1.13       0.94       0.16
    24     1   1106       1.13       0.94       0.16
    25     1   1154       1.13       0.95       0.16
    26     1   1202       1.13       0.98       0.13
    28     1   1298       1.13       0.84       0.25
    29     1   1346       1.13       0.84       0.25
    30     1   1394       1.13       0.84       0.25
    31     1   1442       1.13       0.84       0.25
    32     1   1490       1.13       0.85       0.25

 Time of computation ->  20251123.174500      in sec:      63900.
 not possible to compute, first iteration

  ** WARNING : Differences in wave height at the boundary
 Relative difference between input and computation >=   0.10
                         Hs[m]      Hs[m]      Hs[-]
     ix    iy  index   (input) (computed) (relative)
  --------------------------------------------------
     1    48     49       1.13       0.82       0.28
     1    47     48       1.13       0.55       0.51
     1    46     47       1.13       0.46       0.59
     1    45     46       1.13       0.44       0.61
     1    44     45       1.13       0.43       0.62
     1    43     44       1.13       0.43       0.62
     1    42     43       1.13       0.43       0.62
     1    41     42       1.13       0.43       0.62
     1    40     41       1.13       0.43       0.62
     1    39     40       1.13       0.43       0.61
     1    38     39       1.13       0.44       0.61
     1    37     38       1.13       0.44       0.61
     1    36     37       1.13       0.45       0.60
     1    35     36       1.13       0.45       0.60
     1    34     35       1.13       0.46       0.59
     1    33     34       1.13       0.46       0.59
     1    32     33       1.13       0.47       0.58
     1    31     32       1.13       0.47       0.58
     1    30     31       1.13       0.48       0.57
     1    29     30       1.13       0.49       0.57
     1    28     29       1.13       0.49       0.56
     1    27     28       1.13       0.50       0.55
     1    26     27       1.13       0.51       0.55
     1    25     26       1.13       0.52       0.54
     1    24     25       1.13       0.53       0.53
     1    23     24       1.13       0.54       0.52
     1    22     23       1.13       0.55       0.51
     1    21     22       1.13       0.56       0.50
     1    20     21       1.13       0.57       0.49
     1    19     20       1.13       0.58       0.48
     1    18     19       1.13       0.60       0.47
     1    17     18       1.13       0.61       0.46
     1    16     17       1.13       0.62       0.45
     1    15     16       1.13       0.64       0.43
     1    14     15       1.13       0.65       0.42
     1    13     14       1.13       0.67       0.41
     1    12     13       1.13       0.68       0.39
     1    11     12       1.13       0.70       0.38
     1    10     11       1.13       0.72       0.36
     1     9     10       1.13       0.74       0.35
     1     8      9       1.13       0.76       0.33
     1     7      8       1.13       0.77       0.31
     1     6      7       1.13       0.79       0.30
     1     5      6       1.13       0.81       0.28
     1     4      5       1.13       0.83       0.26
     1     3      4       1.13       0.86       0.24
     1     2      3       1.13       0.88       0.22
     1     1      2       1.13       0.94       0.16
     2     1     50       1.13       0.93       0.17
     3     1     98       1.13       0.93       0.17
     4     1    146       1.13       0.93       0.17
     5     1    194       1.13       0.93       0.17
     6     1    242       1.13       0.93       0.17
     7     1    290       1.13       0.93       0.17
     8     1    338       1.13       0.94       0.17
     9     1    386       1.13       0.94       0.17
    10     1    434       1.13       0.94       0.17
    11     1    482       1.13       0.94       0.17
    12     1    530       1.13       0.94       0.17
    13     1    578       1.13       0.94       0.17
    14     1    626       1.13       0.94       0.17
    15     1    674       1.13       0.94       0.17
    16     1    722       1.13       0.94       0.17
    17     1    770       1.13       0.94       0.17
    18     1    818       1.13       0.94       0.17
    19     1    866       1.13       0.94       0.16
    20     1    914       1.13       0.94       0.16
    21     1    962       1.13       0.95       0.16
    22     1   1010       1.13       0.95       0.16
    23     1   1058       1.13       0.95       0.16
    24     1   1106       1.13       0.95       0.16
    25     1   1154       1.13       0.96       0.15
    26     1   1202       1.13       0.98       0.13
    28     1   1298       1.13       0.85       0.25
    29     1   1346       1.13       0.85       0.25
    30     1   1394       1.13       0.85       0.25
    31     1   1442       1.13       0.85       0.25
    32     1   1490       1.13       0.85       0.24

 Time of computation ->  20251123.180000      in sec:      64800.
 not possible to compute, first iteration

  ** WARNING : Differences in wave height at the boundary
 Relative difference between input and computation >=   0.10
                         Hs[m]      Hs[m]      Hs[-]
     ix    iy  index   (input) (computed) (relative)
  --------------------------------------------------
     1    48     49       1.13       0.81       0.28
     1    47     48       1.13       0.54       0.52
     1    46     47       1.13       0.46       0.59
     1    45     46       1.13       0.43       0.61
     1    44     45       1.13       0.43       0.62
     1    43     44       1.13       0.42       0.62
     1    42     43       1.13       0.42       0.62
     1    41     42       1.13       0.43       0.62
     1    40     41       1.13       0.43       0.62
     1    39     40       1.13       0.43       0.61
     1    38     39       1.13       0.44       0.61
     1    37     38       1.13       0.44       0.61
     1    36     37       1.13       0.45       0.60
     1    35     36       1.13       0.45       0.60
     1    34     35       1.13       0.46       0.59
     1    33     34       1.13       0.46       0.59
     1    32     33       1.13       0.47       0.58
     1    31     32       1.13       0.47       0.58
     1    30     31       1.13       0.48       0.57
     1    29     30       1.13       0.49       0.57
     1    28     29       1.13       0.50       0.56
     1    27     28       1.13       0.50       0.55
     1    26     27       1.13       0.51       0.54
     1    25     26       1.13       0.52       0.54
     1    24     25       1.13       0.53       0.53
     1    23     24       1.13       0.54       0.52
     1    22     23       1.13       0.55       0.51
     1    21     22       1.13       0.56       0.50
     1    20     21       1.13       0.57       0.49
     1    19     20       1.13       0.58       0.48
     1    18     19       1.13       0.60       0.47
     1    17     18       1.13       0.61       0.46
     1    16     17       1.13       0.63       0.44
     1    15     16       1.13       0.64       0.43
     1    14     15       1.13       0.66       0.42
     1    13     14       1.13       0.67       0.40
     1    12     13       1.13       0.69       0.39
     1    11     12       1.13       0.71       0.37
     1    10     11       1.13       0.72       0.36
     1     9     10       1.13       0.74       0.34
     1     8      9       1.13       0.76       0.33
     1     7      8       1.13       0.78       0.31
     1     6      7       1.13       0.80       0.29
     1     5      6       1.13       0.82       0.28
     1     4      5       1.13       0.84       0.26
     1     3      4       1.13       0.86       0.23
     1     2      3       1.13       0.88       0.22
     1     1      2       1.13       0.94       0.16
     2     1     50       1.13       0.94       0.17
     3     1     98       1.13       0.94       0.17
     4     1    146       1.13       0.94       0.17
     5     1    194       1.13       0.94       0.17
     6     1    242       1.13       0.94       0.17
     7     1    290       1.13       0.94       0.17
     8     1    338       1.13       0.94       0.17
     9     1    386       1.13       0.94       0.17
    10     1    434       1.13       0.94       0.17
    11     1    482       1.13       0.94       0.17
    12     1    530       1.13       0.94       0.17
    13     1    578       1.13       0.94       0.17
    14     1    626       1.13       0.94       0.16
    15     1    674       1.13       0.94       0.16
    16     1    722       1.13       0.94       0.16
    17     1    770       1.13       0.94       0.16
    18     1    818       1.13       0.94       0.16
    19     1    866       1.13       0.94       0.16
    20     1    914       1.13       0.95       0.16
    21     1    962       1.13       0.95       0.16
    22     1   1010       1.13       0.95       0.16
    23     1   1058       1.13       0.95       0.16
    24     1   1106       1.13       0.95       0.16
    25     1   1154       1.13       0.96       0.15
    26     1   1202       1.13       0.98       0.13
    28     1   1298       1.13       0.85       0.24
    29     1   1346       1.13       0.85       0.24
    30     1   1394       1.13       0.85       0.24
    31     1   1442       1.13       0.85       0.24
    32     1   1490       1.13       0.86       0.24

 Time of computation ->  20251123.181500      in sec:      65700.
 Boundary data type TPAR processed, time:       75600.
 Boundary data type TPAR processed, time:       75600.
 not possible to compute, first iteration

  ** WARNING : Differences in wave height at the boundary
 Relative difference between input and computation >=   0.10
                         Hs[m]      Hs[m]      Hs[-]
     ix    iy  index   (input) (computed) (relative)
  --------------------------------------------------
     1    48     49       1.13       0.82       0.27
     1    47     48       1.13       0.55       0.51
     1    46     47       1.13       0.47       0.58
     1    45     46       1.13       0.44       0.61
     1    44     45       1.13       0.43       0.62
     1    43     44       1.13       0.43       0.62
     1    42     43       1.13       0.43       0.62
     1    41     42       1.13       0.43       0.61
     1    40     41       1.13       0.44       0.61
     1    39     40       1.13       0.44       0.61
     1    38     39       1.13       0.44       0.61
     1    37     38       1.13       0.45       0.60
     1    36     37       1.13       0.45       0.60
     1    35     36       1.13       0.46       0.59
     1    34     35       1.13       0.46       0.59
     1    33     34       1.13       0.47       0.58
     1    32     33       1.13       0.47       0.58
     1    31     32       1.13       0.48       0.57
     1    30     31       1.13       0.49       0.57
     1    29     30       1.13       0.49       0.56
     1    28     29       1.13       0.50       0.55
     1    27     28       1.13       0.51       0.55
     1    26     27       1.13       0.52       0.54
     1    25     26       1.13       0.53       0.53
     1    24     25       1.13       0.54       0.52
     1    23     24       1.13       0.54       0.52
     1    22     23       1.13       0.55       0.51
     1    21     22       1.13       0.56       0.50
     1    20     21       1.13       0.58       0.49
     1    19     20       1.13       0.59       0.48
     1    18     19       1.13       0.60       0.47
     1    17     18       1.13       0.61       0.45
     1    16     17       1.13       0.63       0.44
     1    15     16       1.13       0.64       0.43
     1    14     15       1.13       0.66       0.42
     1    13     14       1.13       0.67       0.40
     1    12     13       1.13       0.69       0.39
     1    11     12       1.13       0.70       0.37
     1    10     11       1.13       0.72       0.36
     1     9     10       1.13       0.74       0.34
     1     8      9       1.13       0.76       0.33
     1     7      8       1.13       0.77       0.31
     1     6      7       1.13       0.79       0.30
     1     5      6       1.13       0.81       0.28
     1     4      5       1.13       0.83       0.26
     1     3      4       1.13       0.85       0.24
     1     2      3       1.13       0.87       0.22
     1     1      2       1.13       0.94       0.17
     2     1     50       1.13       0.93       0.17
     3     1     98       1.13       0.93       0.17
     4     1    146       1.13       0.93       0.17
     5     1    194       1.13       0.93       0.17
     6     1    242       1.13       0.93       0.17
     7     1    290       1.13       0.93       0.17
     8     1    338       1.13       0.93       0.17
     9     1    386       1.13       0.93       0.17
    10     1    434       1.13       0.93       0.17
    11     1    482       1.13       0.93       0.17
    12     1    530       1.13       0.93       0.17
    13     1    578       1.13       0.93       0.17
    14     1    626       1.13       0.93       0.17
    15     1    674       1.13       0.93       0.17
    16     1    722       1.13       0.94       0.17
    17     1    770       1.13       0.94       0.17
    18     1    818       1.13       0.94       0.17
    19     1    866       1.13       0.94       0.17
    20     1    914       1.13       0.94       0.16
    21     1    962       1.13       0.94       0.16
    22     1   1010       1.13       0.94       0.16
    23     1   1058       1.13       0.94       0.16
    24     1   1106       1.13       0.94       0.16
    25     1   1154       1.13       0.95       0.15
    26     1   1202       1.13       0.98       0.13
    28     1   1298       1.13       0.84       0.25
    29     1   1346       1.13       0.84       0.25
    30     1   1394       1.13       0.84       0.25
    31     1   1442       1.13       0.84       0.25
    32     1   1490       1.13       0.85       0.25

 Time of computation ->  20251123.183000      in sec:      66600.
 not possible to compute, first iteration

  ** WARNING : Differences in wave height at the boundary
 Relative difference between input and computation >=   0.10
                         Hs[m]      Hs[m]      Hs[-]
     ix    iy  index   (input) (computed) (relative)
  --------------------------------------------------
     1    48     49       1.13       0.83       0.26
     1    47     48       1.13       0.56       0.50
     1    46     47       1.13       0.48       0.58
     1    45     46       1.13       0.45       0.60
     1    44     45       1.13       0.44       0.61
     1    43     44       1.13       0.44       0.61
     1    42     43       1.13       0.44       0.61
     1    41     42       1.13       0.44       0.61
     1    40     41       1.13       0.44       0.61
     1    39     40       1.13       0.45       0.60
     1    38     39       1.13       0.45       0.60
     1    37     38       1.13       0.45       0.60
     1    36     37       1.13       0.46       0.59
     1    35     36       1.13       0.46       0.59
     1    34     35       1.13       0.47       0.58
     1    33     34       1.13       0.47       0.58
     1    32     33       1.13       0.48       0.58
     1    31     32       1.13       0.48       0.57
     1    30     31       1.13       0.49       0.56
     1    29     30       1.13       0.50       0.56
     1    28     29       1.13       0.50       0.55
     1    27     28       1.13       0.51       0.55
     1    26     27       1.13       0.52       0.54
     1    25     26       1.13       0.53       0.53
     1    24     25       1.13       0.54       0.52
     1    23     24       1.13       0.55       0.52
     1    22     23       1.13       0.55       0.51
     1    21     22       1.13       0.56       0.50
     1    20     21       1.13       0.58       0.49
     1    19     20       1.13       0.59       0.48
     1    18     19       1.13       0.60       0.47
     1    17     18       1.13       0.61       0.46
     1    16     17       1.13       0.63       0.44
     1    15     16       1.13       0.64       0.43
     1    14     15       1.13       0.65       0.42
     1    13     14       1.13       0.67       0.41
     1    12     13       1.13       0.68       0.39
     1    11     12       1.13       0.70       0.38
     1    10     11       1.13       0.71       0.37
     1     9     10       1.13       0.73       0.35
     1     8      9       1.13       0.75       0.34
     1     7      8       1.13       0.76       0.32
     1     6      7       1.13       0.78       0.31
     1     5      6       1.13       0.80       0.29
     1     4      5       1.13       0.82       0.27
     1     3      4       1.13       0.84       0.25
     1     2      3       1.13       0.86       0.23
     1     1      2       1.13       0.93       0.17
     2     1     50       1.13       0.92       0.18
     3     1     98       1.13       0.92       0.18
     4     1    146       1.13       0.92       0.18
     5     1    194       1.13       0.92       0.18
     6     1    242       1.13       0.92       0.18
     7     1    290       1.13       0.93       0.18
     8     1    338       1.13       0.93       0.18
     9     1    386       1.13       0.93       0.18
    10     1    434       1.13       0.93       0.18
    11     1    482       1.13       0.93       0.18
    12     1    530       1.13       0.93       0.18
    13     1    578       1.13       0.93       0.18
    14     1    626       1.13       0.93       0.18
    15     1    674       1.13       0.93       0.18
    16     1    722       1.13       0.93       0.17
    17     1    770       1.13       0.93       0.17
    18     1    818       1.13       0.93       0.17
    19     1    866       1.13       0.93       0.17
    20     1    914       1.13       0.93       0.17
    21     1    962       1.13       0.94       0.17
    22     1   1010       1.13       0.94       0.17
    23     1   1058       1.13       0.94       0.17
    24     1   1106       1.13       0.94       0.17
    25     1   1154       1.13       0.95       0.16
    26     1   1202       1.13       0.97       0.14
    28     1   1298       1.13       0.83       0.26
    29     1   1346       1.13       0.83       0.26
    30     1   1394       1.13       0.83       0.26
    31     1   1442       1.13       0.83       0.26
    32     1   1490       1.13       0.84       0.26

 Time of computation ->  20251123.184500      in sec:      67500.
 not possible to compute, first iteration

  ** WARNING : Differences in wave height at the boundary
 Relative difference between input and computation >=   0.10
                         Hs[m]      Hs[m]      Hs[-]
     ix    iy  index   (input) (computed) (relative)
  --------------------------------------------------
     1    48     49       1.13       0.85       0.25
     1    47     48       1.13       0.57       0.49
     1    46     47       1.13       0.49       0.57
     1    45     46       1.13       0.46       0.60
     1    44     45       1.13       0.45       0.60
     1    43     44       1.13       0.44       0.61
     1    42     43       1.13       0.44       0.61
     1    41     42       1.13       0.44       0.61
     1    40     41       1.13       0.45       0.60
     1    39     40       1.13       0.45       0.60
     1    38     39       1.13       0.45       0.60
     1    37     38       1.13       0.46       0.59
     1    36     37       1.13       0.46       0.59
     1    35     36       1.13       0.47       0.59
     1    34     35       1.13       0.47       0.58
     1    33     34       1.13       0.47       0.58
     1    32     33       1.13       0.48       0.57
     1    31     32       1.13       0.49       0.57
     1    30     31       1.13       0.49       0.56
     1    29     30       1.13       0.50       0.56
     1    28     29       1.13       0.50       0.55
     1    27     28       1.13       0.51       0.55
     1    26     27       1.13       0.52       0.54
     1    25     26       1.13       0.53       0.53
     1    24     25       1.13       0.54       0.53
     1    23     24       1.13       0.54       0.52
     1    22     23       1.13       0.55       0.51
     1    21     22       1.13       0.56       0.50
     1    20     21       1.13       0.57       0.49
     1    19     20       1.13       0.58       0.48
     1    18     19       1.13       0.60       0.47
     1    17     18       1.13       0.61       0.46
     1    16     17       1.13       0.62       0.45
     1    15     16       1.13       0.63       0.44
     1    14     15       1.13       0.65       0.43
     1    13     14       1.13       0.66       0.41
     1    12     13       1.13       0.68       0.40
     1    11     12       1.13       0.69       0.39
     1    10     11       1.13       0.71       0.37
     1     9     10       1.13       0.72       0.36
     1     8      9       1.13       0.74       0.34
     1     7      8       1.13       0.76       0.33
     1     6      7       1.13       0.77       0.31
     1     5      6       1.13       0.79       0.30
     1     4      5       1.13       0.81       0.28
     1     3      4       1.13       0.84       0.26
     1     2      3       1.13       0.86       0.24
     1     1      2       1.13       0.93       0.18
     2     1     50       1.13       0.92       0.19
     3     1     98       1.13       0.92       0.19
     4     1    146       1.13       0.92       0.19
     5     1    194       1.13       0.92       0.19
     6     1    242       1.13       0.92       0.19
     7     1    290       1.13       0.92       0.19
     8     1    338       1.13       0.92       0.18
     9     1    386       1.13       0.92       0.18
    10     1    434       1.13       0.92       0.18
    11     1    482       1.13       0.92       0.18
    12     1    530       1.13       0.92       0.18
    13     1    578       1.13       0.92       0.18
    14     1    626       1.13       0.92       0.18
    15     1    674       1.13       0.92       0.18
    16     1    722       1.13       0.92       0.18
    17     1    770       1.13       0.92       0.18
    18     1    818       1.13       0.93       0.18
    19     1    866       1.13       0.93       0.18
    20     1    914       1.13       0.93       0.18
    21     1    962       1.13       0.93       0.17
    22     1   1010       1.13       0.93       0.17
    23     1   1058       1.13       0.93       0.17
    24     1   1106       1.13       0.93       0.17
    25     1   1154       1.13       0.94       0.17
    26     1   1202       1.13       0.97       0.14
    28     1   1298       1.13       0.82       0.27
    29     1   1346       1.13       0.82       0.27
    30     1   1394       1.13       0.82       0.27
    31     1   1442       1.13       0.82       0.27
    32     1   1490       1.13       0.83       0.27

 Time of computation ->  20251123.190000      in sec:      68400.
 not possible to compute, first iteration

  ** WARNING : Differences in wave height at the boundary
 Relative difference between input and computation >=   0.10
                         Hs[m]      Hs[m]      Hs[-]
     ix    iy  index   (input) (computed) (relative)
  --------------------------------------------------
     1    48     49       1.13       0.86       0.24
     1    47     48       1.13       0.58       0.48
     1    46     47       1.13       0.49       0.56
     1    45     46       1.13       0.46       0.59
     1    44     45       1.13       0.45       0.60
     1    43     44       1.13       0.45       0.60
     1    42     43       1.13       0.45       0.60
     1    41     42       1.13       0.45       0.60
     1    40     41       1.13       0.45       0.60
     1    39     40       1.13       0.45       0.60
     1    38     39       1.13       0.46       0.60
     1    37     38       1.13       0.46       0.59
     1    36     37       1.13       0.46       0.59
     1    35     36       1.13       0.47       0.59
     1    34     35       1.13       0.47       0.58
     1    33     34       1.13       0.48       0.58
     1    32     33       1.13       0.48       0.57
     1    31     32       1.13       0.49       0.57
     1    30     31       1.13       0.49       0.56
     1    29     30       1.13       0.50       0.56
     1    28     29       1.13       0.50       0.55
     1    27     28       1.13       0.51       0.55
     1    26     27       1.13       0.52       0.54
     1    25     26       1.13       0.53       0.54
     1    24     25       1.13       0.53       0.53
     1    23     24       1.13       0.54       0.52
     1    22     23       1.13       0.55       0.51
     1    21     22       1.13       0.56       0.51
     1    20     21       1.13       0.57       0.50
     1    19     20       1.13       0.58       0.49
     1    18     19       1.13       0.59       0.48
     1    17     18       1.13       0.60       0.47
     1    16     17       1.13       0.61       0.46
     1    15     16       1.13       0.63       0.45
     1    14     15       1.13       0.64       0.43
     1    13     14       1.13       0.65       0.42
     1    12     13       1.13       0.67       0.41
     1    11     12       1.13       0.68       0.40
     1    10     11       1.13       0.70       0.38
     1     9     10       1.13       0.71       0.37
     1     8      9       1.13       0.73       0.35
     1     7      8       1.13       0.75       0.34
     1     6      7       1.13       0.76       0.32
     1     5      6       1.13       0.78       0.31
     1     4      5       1.13       0.80       0.29
     1     3      4       1.13       0.83       0.27
     1     2      3       1.13       0.85       0.25
     1     1      2       1.13       0.92       0.18
     2     1     50       1.13       0.91       0.19
     3     1     98       1.13       0.91       0.19
     4     1    146       1.13       0.91       0.19
     5     1    194       1.13       0.91       0.19
     6     1    242       1.13       0.91       0.19
     7     1    290       1.13       0.91       0.19
     8     1    338       1.13       0.91       0.19
     9     1    386       1.13       0.91       0.19
    10     1    434       1.13       0.91       0.19
    11     1    482       1.13       0.91       0.19
    12     1    530       1.13       0.91       0.19
    13     1    578       1.13       0.91       0.19
    14     1    626       1.13       0.92       0.19
    15     1    674       1.13       0.92       0.19
    16     1    722       1.13       0.92       0.19
    17     1    770       1.13       0.92       0.19
    18     1    818       1.13       0.92       0.19
    19     1    866       1.13       0.92       0.19
    20     1    914       1.13       0.92       0.18
    21     1    962       1.13       0.92       0.18
    22     1   1010       1.13       0.93       0.18
    23     1   1058       1.13       0.93       0.18
    24     1   1106       1.13       0.93       0.18
    25     1   1154       1.13       0.94       0.17
    26     1   1202       1.13       0.96       0.15
    28     1   1298       1.13       0.81       0.28
    29     1   1346       1.13       0.81       0.28
    30     1   1394       1.13       0.81       0.28
    31     1   1442       1.13       0.81       0.28
    32     1   1490       1.13       0.82       0.28

 Time of computation ->  20251123.191500      in sec:      69300.
 not possible to compute, first iteration

  ** WARNING : Differences in wave height at the boundary
 Relative difference between input and computation >=   0.10
                         Hs[m]      Hs[m]      Hs[-]
     ix    iy  index   (input) (computed) (relative)
  --------------------------------------------------
     1    48     49       1.13       0.87       0.23
     1    47     48       1.13       0.59       0.48
     1    46     47       1.13       0.50       0.56
     1    45     46       1.13       0.47       0.59
     1    44     45       1.13       0.46       0.60
     1    43     44       1.13       0.45       0.60
     1    42     43       1.13       0.45       0.60
     1    41     42       1.13       0.45       0.60
     1    40     41       1.13       0.45       0.60
     1    39     40       1.13       0.46       0.60
     1    38     39       1.13       0.46       0.59
     1    37     38       1.13       0.46       0.59
     1    36     37       1.13       0.47       0.59
     1    35     36       1.13       0.47       0.59
     1    34     35       1.13       0.47       0.58
     1    33     34       1.13       0.48       0.58
     1    32     33       1.13       0.48       0.57
     1    31     32       1.13       0.49       0.57
     1    30     31       1.13       0.49       0.57
     1    29     30       1.13       0.50       0.56
     1    28     29       1.13       0.50       0.56
     1    27     28       1.13       0.51       0.55
     1    26     27       1.13       0.52       0.54
     1    25     26       1.13       0.52       0.54
     1    24     25       1.13       0.53       0.53
     1    23     24       1.13       0.54       0.52
     1    22     23       1.13       0.55       0.52
     1    21     22       1.13       0.56       0.51
     1    20     21       1.13       0.56       0.50
     1    19     20       1.13       0.58       0.49
     1    18     19       1.13       0.59       0.48
     1    17     18       1.13       0.60       0.47
     1    16     17       1.13       0.61       0.46
     1    15     16       1.13       0.62       0.45
     1    14     15       1.13       0.63       0.44
     1    13     14       1.13       0.65       0.43
     1    12     13       1.13       0.66       0.42
     1    11     12       1.13       0.68       0.40
     1    10     11       1.13       0.69       0.39
     1     9     10       1.13       0.71       0.38
     1     8      9       1.13       0.72       0.36
     1     7      8       1.13       0.74       0.35
     1     6      7       1.13       0.76       0.33
     1     5      6       1.13       0.77       0.32
     1     4      5       1.13       0.80       0.30
     1     3      4       1.13       0.82       0.28
[...]
     2     1     50       1.30       0.86       0.33
     3     1     98       1.30       0.86       0.34
     4     1    146       1.30       0.86       0.34
     5     1    194       1.30       0.86       0.34
     6     1    242       1.30       0.86       0.34
     7     1    290       1.30       0.86       0.34
     8     1    338       1.30       0.86       0.34
     9     1    386       1.30       0.86       0.33
    10     1    434       1.30       0.86       0.33
    11     1    482       1.30       0.86       0.33
    12     1    530       1.30       0.87       0.33
    13     1    578       1.30       0.87       0.33
    14     1    626       1.30       0.87       0.33
    15     1    674       1.30       0.86       0.33
    16     1    722       1.30       0.86       0.33
    17     1    770       1.30       0.86       0.33
    18     1    818       1.30       0.86       0.33
    19     1    866       1.30       0.87       0.33
    20     1    914       1.30       0.87       0.33
    21     1    962       1.30       0.87       0.33
    22     1   1010       1.30       0.87       0.33
    23     1   1058       1.30       0.87       0.33
    24     1   1106       1.30       0.87       0.33
    25     1   1154       1.30       0.90       0.31
    26     1   1202       1.30       0.96       0.26
    27     1   1250       1.30       1.16       0.10
    28     1   1298       1.30       0.73       0.44
    29     1   1346       1.30       0.73       0.44
    30     1   1394       1.30       0.73       0.44
    31     1   1442       1.30       0.73       0.44
    32     1   1490       1.30       0.75       0.42

 Time of computation ->  20251130.141500      in sec:     656100.
 not possible to compute, first iteration

  ** WARNING : Differences in wave height at the boundary
 Relative difference between input and computation >=   0.10
                         Hs[m]      Hs[m]      Hs[-]
     ix    iy  index   (input) (computed) (relative)
  --------------------------------------------------
     1    48     49       1.30       1.10       0.15
     1    47     48       1.30       0.72       0.45
     1    46     47       1.30       0.56       0.57
     1    45     46       1.30       0.49       0.62
     1    44     45       1.30       0.45       0.65
     1    43     44       1.30       0.43       0.67
     1    42     43       1.30       0.42       0.67
     1    41     42       1.30       0.42       0.68
     1    40     41       1.30       0.41       0.68
     1    39     40       1.30       0.41       0.68
     1    38     39       1.30       0.41       0.68
     1    37     38       1.30       0.41       0.68
     1    36     37       1.30       0.41       0.68
     1    35     36       1.30       0.41       0.68
     1    34     35       1.30       0.41       0.68
     1    33     34       1.30       0.42       0.68
     1    32     33       1.30       0.42       0.68
     1    31     32       1.30       0.42       0.68
     1    30     31       1.30       0.42       0.67
     1    29     30       1.30       0.43       0.67
     1    28     29       1.30       0.43       0.67
     1    27     28       1.30       0.43       0.67
     1    26     27       1.30       0.44       0.66
     1    25     26       1.30       0.44       0.66
     1    24     25       1.30       0.45       0.65
     1    23     24       1.30       0.45       0.65
     1    22     23       1.30       0.46       0.65
     1    21     22       1.30       0.47       0.64
     1    20     21       1.30       0.47       0.63
     1    19     20       1.30       0.48       0.63
     1    18     19       1.30       0.50       0.62
     1    17     18       1.30       0.51       0.61
     1    16     17       1.30       0.52       0.60
     1    15     16       1.30       0.53       0.59
     1    14     15       1.30       0.54       0.58
     1    13     14       1.30       0.56       0.57
     1    12     13       1.30       0.57       0.56
     1    11     12       1.30       0.59       0.55
     1    10     11       1.30       0.61       0.53
     1     9     10       1.30       0.63       0.52
     1     8      9       1.30       0.65       0.50
     1     7      8       1.30       0.67       0.49
     1     6      7       1.30       0.69       0.47
     1     5      6       1.30       0.71       0.45
     1     4      5       1.30       0.74       0.43
     1     3      4       1.30       0.77       0.41
     1     2      3       1.30       0.80       0.39
     1     1      2       1.30       0.89       0.31
     2     1     50       1.30       0.87       0.33
     3     1     98       1.30       0.86       0.33
     4     1    146       1.30       0.86       0.33
     5     1    194       1.30       0.86       0.34
     6     1    242       1.30       0.86       0.34
     7     1    290       1.30       0.86       0.33
     8     1    338       1.30       0.86       0.33
     9     1    386       1.30       0.87       0.33
    10     1    434       1.30       0.87       0.33
    11     1    482       1.30       0.87       0.33
    12     1    530       1.30       0.87       0.33
    13     1    578       1.30       0.87       0.33
    14     1    626       1.30       0.87       0.33
    15     1    674       1.30       0.87       0.33
    16     1    722       1.30       0.87       0.33
    17     1    770       1.30       0.87       0.33
    18     1    818       1.30       0.87       0.33
    19     1    866       1.30       0.87       0.33
    20     1    914       1.30       0.87       0.33
    21     1    962       1.30       0.87       0.33
    22     1   1010       1.30       0.87       0.33
    23     1   1058       1.30       0.87       0.33
    24     1   1106       1.30       0.88       0.33
    25     1   1154       1.30       0.90       0.31
    26     1   1202       1.30       0.97       0.26
    27     1   1250       1.30       1.16       0.10
    28     1   1298       1.30       0.73       0.44
    29     1   1346       1.30       0.73       0.44
    30     1   1394       1.30       0.73       0.44
    31     1   1442       1.30       0.73       0.44
    32     1   1490       1.30       0.75       0.42

 Time of computation ->  20251130.143000      in sec:     657000.
 not possible to compute, first iteration

  ** WARNING : Differences in wave height at the boundary
 Relative difference between input and computation >=   0.10
                         Hs[m]      Hs[m]      Hs[-]
     ix    iy  index   (input) (computed) (relative)
  --------------------------------------------------
     1    48     49       1.30       1.10       0.16
     1    47     48       1.30       0.72       0.45
     1    46     47       1.30       0.56       0.57
     1    45     46       1.30       0.49       0.62
     1    44     45       1.30       0.45       0.65
     1    43     44       1.30       0.43       0.67
     1    42     43       1.30       0.42       0.67
     1    41     42       1.30       0.42       0.68
     1    40     41       1.30       0.41       0.68
     1    39     40       1.30       0.41       0.68
     1    38     39       1.30       0.41       0.68
     1    37     38       1.30       0.41       0.68
     1    36     37       1.30       0.41       0.68
     1    35     36       1.30       0.41       0.68
     1    34     35       1.30       0.41       0.68
     1    33     34       1.30       0.42       0.68
     1    32     33       1.30       0.42       0.68
     1    31     32       1.30       0.42       0.68
     1    30     31       1.30       0.42       0.67
     1    29     30       1.30       0.43       0.67
     1    28     29       1.30       0.43       0.67
     1    27     28       1.30       0.43       0.67
     1    26     27       1.30       0.44       0.66
     1    25     26       1.30       0.44       0.66
     1    24     25       1.30       0.45       0.65
     1    23     24       1.30       0.46       0.65
     1    22     23       1.30       0.46       0.65
     1    21     22       1.30       0.47       0.64
     1    20     21       1.30       0.48       0.63
     1    19     20       1.30       0.48       0.63
     1    18     19       1.30       0.50       0.62
     1    17     18       1.30       0.51       0.61
     1    16     17       1.30       0.52       0.60
     1    15     16       1.30       0.53       0.59
     1    14     15       1.30       0.54       0.58
     1    13     14       1.30       0.56       0.57
     1    12     13       1.30       0.57       0.56
     1    11     12       1.30       0.59       0.55
     1    10     11       1.30       0.61       0.53
     1     9     10       1.30       0.63       0.52
     1     8      9       1.30       0.65       0.50
     1     7      8       1.30       0.67       0.49
     1     6      7       1.30       0.69       0.47
     1     5      6       1.30       0.72       0.45
     1     4      5       1.30       0.74       0.43
     1     3      4       1.30       0.77       0.40
     1     2      3       1.30       0.80       0.38
     1     1      2       1.30       0.89       0.31
     2     1     50       1.30       0.87       0.33
     3     1     98       1.30       0.87       0.33
     4     1    146       1.30       0.87       0.33
     5     1    194       1.30       0.87       0.33
     6     1    242       1.30       0.87       0.33
     7     1    290       1.30       0.87       0.33
     8     1    338       1.30       0.87       0.33
     9     1    386       1.30       0.87       0.33
    10     1    434       1.30       0.87       0.33
    11     1    482       1.30       0.87       0.33
    12     1    530       1.30       0.87       0.33
    13     1    578       1.30       0.87       0.33
    14     1    626       1.30       0.87       0.33
    15     1    674       1.30       0.87       0.33
    16     1    722       1.30       0.87       0.33
    17     1    770       1.30       0.87       0.33
    18     1    818       1.30       0.87       0.33
    19     1    866       1.30       0.87       0.33
    20     1    914       1.30       0.87       0.33
    21     1    962       1.30       0.87       0.33
    22     1   1010       1.30       0.87       0.33
    23     1   1058       1.30       0.87       0.33
    24     1   1106       1.30       0.88       0.32
    25     1   1154       1.30       0.90       0.30
    26     1   1202       1.30       0.97       0.26
    27     1   1250       1.30       1.17       0.10
    28     1   1298       1.30       0.73       0.43
    29     1   1346       1.30       0.73       0.44
    30     1   1394       1.30       0.73       0.44
    31     1   1442       1.30       0.73       0.44
    32     1   1490       1.30       0.75       0.42

 Time of computation ->  20251130.144500      in sec:     657900.
 not possible to compute, first iteration

  ** WARNING : Differences in wave height at the boundary
 Relative difference between input and computation >=   0.10
                         Hs[m]      Hs[m]      Hs[-]
     ix    iy  index   (input) (computed) (relative)
  --------------------------------------------------
     1    48     49       1.30       1.10       0.16
     1    47     48       1.30       0.72       0.45
     1    46     47       1.30       0.56       0.57
     1    45     46       1.30       0.49       0.63
     1    44     45       1.30       0.45       0.65
     1    43     44       1.30       0.43       0.67
     1    42     43       1.30       0.42       0.67
     1    41     42       1.30       0.42       0.68
     1    40     41       1.30       0.41       0.68
     1    39     40       1.30       0.41       0.68
     1    38     39       1.30       0.41       0.68
     1    37     38       1.30       0.41       0.68
     1    36     37       1.30       0.41       0.68
     1    35     36       1.30       0.41       0.68
     1    34     35       1.30       0.42       0.68
     1    33     34       1.30       0.42       0.68
     1    32     33       1.30       0.42       0.68
     1    31     32       1.30       0.42       0.68
     1    30     31       1.30       0.42       0.67
     1    29     30       1.30       0.43       0.67
     1    28     29       1.30       0.43       0.67
     1    27     28       1.30       0.43       0.67
     1    26     27       1.30       0.44       0.66
     1    25     26       1.30       0.44       0.66
     1    24     25       1.30       0.45       0.65
     1    23     24       1.30       0.46       0.65
     1    22     23       1.30       0.46       0.65
     1    21     22       1.30       0.47       0.64
     1    20     21       1.30       0.48       0.63
     1    19     20       1.30       0.49       0.63
     1    18     19       1.30       0.50       0.62
     1    17     18       1.30       0.51       0.61
     1    16     17       1.30       0.52       0.60
     1    15     16       1.30       0.53       0.59
     1    14     15       1.30       0.54       0.58
     1    13     14       1.30       0.56       0.57
     1    12     13       1.30       0.57       0.56
     1    11     12       1.30       0.59       0.55
     1    10     11       1.30       0.61       0.53
     1     9     10       1.30       0.63       0.52
     1     8      9       1.30       0.65       0.50
     1     7      8       1.30       0.67       0.49
     1     6      7       1.30       0.69       0.47
     1     5      6       1.30       0.72       0.45
     1     4      5       1.30       0.75       0.43
     1     3      4       1.30       0.78       0.40
     1     2      3       1.30       0.80       0.38
     1     1      2       1.30       0.90       0.31
     2     1     50       1.30       0.87       0.33
     3     1     98       1.30       0.87       0.33
     4     1    146       1.30       0.87       0.33
     5     1    194       1.30       0.87       0.33
     6     1    242       1.30       0.87       0.33
     7     1    290       1.30       0.87       0.33
     8     1    338       1.30       0.87       0.33
     9     1    386       1.30       0.87       0.33
    10     1    434       1.30       0.87       0.33
    11     1    482       1.30       0.87       0.33
    12     1    530       1.30       0.87       0.33
    13     1    578       1.30       0.87       0.33
    14     1    626       1.30       0.87       0.33
    15     1    674       1.30       0.87       0.33
    16     1    722       1.30       0.87       0.33
    17     1    770       1.30       0.87       0.33
    18     1    818       1.30       0.87       0.33
    19     1    866       1.30       0.87       0.33
    20     1    914       1.30       0.87       0.33
    21     1    962       1.30       0.87       0.33
    22     1   1010       1.30       0.87       0.33
    23     1   1058       1.30       0.87       0.33
    24     1   1106       1.30       0.88       0.32
    25     1   1154       1.30       0.91       0.30
    26     1   1202       1.30       0.97       0.26
    27     1   1250       1.30       1.17       0.10
    28     1   1298       1.30       0.74       0.43
    29     1   1346       1.30       0.74       0.43
    30     1   1394       1.30       0.74       0.43
    31     1   1442       1.30       0.74       0.43
    32     1   1490       1.30       0.75       0.42

 Time of computation ->  20251130.150000      in sec:     658800.
 not possible to compute, first iteration

  ** WARNING : Differences in wave height at the boundary
 Relative difference between input and computation >=   0.10
                         Hs[m]      Hs[m]      Hs[-]
     ix    iy  index   (input) (computed) (relative)
  --------------------------------------------------
     1    48     49       1.30       1.10       0.16
     1    47     48       1.30       0.72       0.45
     1    46     47       1.30       0.56       0.57
     1    45     46       1.30       0.49       0.63
     1    44     45       1.30       0.45       0.65
     1    43     44       1.30       0.43       0.67
     1    42     43       1.30       0.42       0.68
     1    41     42       1.30       0.42       0.68
     1    40     41       1.30       0.41       0.68
     1    39     40       1.30       0.41       0.68
     1    38     39       1.30       0.41       0.68
     1    37     38       1.30       0.41       0.68
     1    36     37       1.30       0.41       0.68
     1    35     36       1.30       0.41       0.68
     1    34     35       1.30       0.41       0.68
     1    33     34       1.30       0.42       0.68
     1    32     33       1.30       0.42       0.68
     1    31     32       1.30       0.42       0.68
     1    30     31       1.30       0.42       0.67
     1    29     30       1.30       0.43       0.67
     1    28     29       1.30       0.43       0.67
     1    27     28       1.30       0.43       0.67
     1    26     27       1.30       0.44       0.66
     1    25     26       1.30       0.44       0.66
     1    24     25       1.30       0.45       0.65
     1    23     24       1.30       0.46       0.65
     1    22     23       1.30       0.46       0.65
     1    21     22       1.30       0.47       0.64
     1    20     21       1.30       0.48       0.63
     1    19     20       1.30       0.49       0.63
     1    18     19       1.30       0.50       0.62
     1    17     18       1.30       0.51       0.61
     1    16     17       1.30       0.52       0.60
     1    15     16       1.30       0.53       0.59
     1    14     15       1.30       0.54       0.58
     1    13     14       1.30       0.56       0.57
     1    12     13       1.30       0.57       0.56
     1    11     12       1.30       0.59       0.54
     1    10     11       1.30       0.61       0.53
     1     9     10       1.30       0.63       0.52
     1     8      9       1.30       0.65       0.50
     1     7      8       1.30       0.67       0.49
     1     6      7       1.30       0.69       0.47
     1     5      6       1.30       0.72       0.45
     1     4      5       1.30       0.75       0.43
     1     3      4       1.30       0.78       0.40
     1     2      3       1.30       0.80       0.38
     1     1      2       1.30       0.90       0.31
     2     1     50       1.30       0.87       0.33
     3     1     98       1.30       0.87       0.33
     4     1    146       1.30       0.87       0.33
     5     1    194       1.30       0.87       0.33
     6     1    242       1.30       0.87       0.33
     7     1    290       1.30       0.87       0.33
     8     1    338       1.30       0.87       0.33
     9     1    386       1.30       0.87       0.33
    10     1    434       1.30       0.87       0.33
    11     1    482       1.30       0.87       0.33
    12     1    530       1.30       0.87       0.33
    13     1    578       1.30       0.87       0.33
    14     1    626       1.30       0.87       0.33
    15     1    674       1.30       0.87       0.33
    16     1    722       1.30       0.87       0.33
    17     1    770       1.30       0.87       0.33
    18     1    818       1.30       0.87       0.33
    19     1    866       1.30       0.87       0.33
    20     1    914       1.30       0.87       0.33
    21     1    962       1.30       0.87       0.33
    22     1   1010       1.30       0.87       0.33
    23     1   1058       1.30       0.87       0.33
    24     1   1106       1.30       0.88       0.32
    25     1   1154       1.30       0.91       0.30
    26     1   1202       1.30       0.97       0.26
    27     1   1250       1.30       1.17       0.10
    28     1   1298       1.30       0.74       0.43
    29     1   1346       1.30       0.74       0.43
    30     1   1394       1.30       0.74       0.43
    31     1   1442       1.30       0.74       0.43
    32     1   1490       1.30       0.75       0.42

    
 STOP
