1

                    Execution started at 20251124.060922         



                    ---------------------------------------
                                     SWAN
                    SIMULATION OF WAVES IN NEAR SHORE AREAS
                             VERSION NUMBER 41.51               
                    ---------------------------------------


    
 $ SWAN INPUT: AHANGAMA (7 DAY / 3 HR)
    
 PROJECT 'AHANGAMA' '1'
    
 MODE NONSTATIONARY
    
 COORDINATES SPHERICAL
    
 
    
 $ 1. GRID
    
 CGRID REGULAR 80.252083 5.852083 0.0 0.1458 0.1458 35 35 CIRCLE 36 0.05 1.0 24
 Resolution in sigma-space: df/f =  0.1329
    
 INPGRID BOTTOM 80.252083 5.852083 0.0 35 35 0.004167 0.004167 EXC -99
    
 READGRID BOTTOM 1 'ahangama.bot' 1 0 FREE
 ** Warning          : Point removed from computational grid
Point with index (    21,     6) was removed from computational grid because it is an isolated wet point or is part of a 1D configuration or 1D connection.
    
 
    
 $ 2. BOUNDARIES
    
 BOUND SHAPE JONSWAP 3.3 PEAK DSPR DEGREES
    
 
    
 $ SOUTH BOUNDARY (Primary Swell Source for South Coast)
    
 BOUNDSPEC SIDE SOUTH CONSTANT FILE 'ahangama_boundary.bnd'
    
 
    
 $ WEST BOUNDARY (Secondary Source - replacing East!)
    
 $ Ahangama is South-West coast, so energy comes from S and W.
    
 BOUNDSPEC SIDE WEST CONSTANT FILE 'ahangama_boundary_copy.bnd'
    
 
    
 $ 3. PHYSICS
    
 BREAKING CON 1.0 0.73
    
 FRICTION JONSWAP CONSTANT 0.067
    
 OFF WCAP
    
 OFF QUAD
    
 
    
 $ 4. NUMERICS
    
 PROP BSBT
    
 NUMERIC STOPC 0.005 0.005 0.005 95. STAT 15
    
 
    
 $ 5. OUTPUT POINTS (Updated for Ahangama Grid)
    
 $ DEEP: Near the SW corner of your grid
    
 POINTS 'DEEP' 80.2600 5.8600
    
 
    
 $ MID: Halfway to the surf
    
 POINTS 'MID'  80.3100 5.9100
    
 
    
 $ SURF: Just offshore of Ahangama (5.970)
    
 POINTS 'SURF' 80.3630 5.9650
    
 
    
 $ OUTPUT TABLES
    
 TABLE 'DEEP' HEAD 'deep_forecast.tbl' HS TPS DIR DEPTH QB OUTPUT 20251124.0000 3 HR
    
 TABLE 'MID'  HEAD 'mid_forecast.tbl'  HS TPS DIR DEPTH QB OUTPUT 20251124.0000 3 HR
    
 TABLE 'SURF' HEAD 'surf_forecast.tbl' HS TPS DIR DEPTH QB OUTPUT 20251124.0000 3 HR
    
 
    
 $ 6. RUN
    
 COMPUTE 20251124.0000 15 MIN 20251201.0000
 ** Warning          : Limiter is de-activated in case of no quadruplets
 Boundary data type TPAR processed, time:           0.
 Boundary data type TPAR processed, time:           0.
 Time of computation ->  20251124.001500      in sec:        900.
 Boundary data type TPAR processed, time:       21600.
 Boundary data type TPAR processed, time:       21600.

----------------------------------------------------------------
                  COMPUTATIONAL PART OF SWAN
----------------------------------------------------------------

 Gridresolution       : MXC              36 MYC             36
                      : MCGRD          1128
                      : MSC              25 MDC             36
                      : MTC             672
                      : NSTATC            1 ITERMX           1
 Propagation flags    : ITFRE             1 IREFR            1
 Source term flags    : IBOT              1 ISURF            1
                      : IWCAP             0 IWIND            0
                      : ITRIAD            0 IQUAD            0
                      : IBRAG             0 IQCM             0
                      : IVEG              0 ITURBV           0
                      : IMUD              0 IICE             0
 Spatial step         : DX       0.4166E-02 DY      0.4166E-02
 Spectral bin         : df/f     0.1329E+00 DDIR    0.1000E+02
 Physical constants   : GRAV     0.9810E+01 RHO     0.1025E+04
 Wind input           : WSPEED   0.0000E+00 DIR     0.0000E+00
                      : ICEWIND  0.00
 Tail parameters      : E(f)     0.4000E+01 E(k)    0.2500E+01
                      : A(f)     0.5000E+01 A(k)    0.3000E+01
 Accuracy parameters  : DREL     0.5000E-02 NPNTS   0.9500E+02
                      : DHABS    0.5000E-02 CURVAT  0.5000E-02
                      : GRWMX    0.1000E+21
 Drying/flooding      : LEVEL    0.0000E+00 DEPMIN  0.5000E-01
 The Cartesian convention for wind and wave directions is used
 Scheme for geographic propagation is BSBT  
 Scheme geogr. space  : PROPSC            1 ICMAX            5
 Scheme spectral space: CSS      0.5000E+00 CDD     0.5000E+00
 Current is off
 Quadruplets is off
 Triads is off
 Bragg scattering is off
 QC scattering is off
 Surfbeat (IEM) is off
 JONSWAP (`73)        : GAMMA    0.6700E-01
 Vegetation is off
 Turbulence is off
 Fluid mud is off
 Dissipation by sea ice is off
 Whitecapping is off
 Battjes&Janssen (`78): ALPHA    0.1000E+01 GAMMA   0.7300E+00
 Set-up is off
 Diffraction is off
 Janssen (`89,`90)    : ALPHA    0.1000E-01 KAPPA   0.4100E+00
 Janssen (`89,`90)    : RHOA     0.1280E+01 RHOW    0.1025E+04

 1st and 2nd gen. wind: CF10     0.1880E+03 CF20    0.5900E+00
                      : CF30     0.1200E+00 CF40    0.2500E+03
                      : CF50     0.2300E-02 CF60   -0.2230E+00
                      : CF70     0.0000E+00 CF80   -0.5600E+00
                      : RHOAW    0.1249E-02 EDMLPM  0.3600E-02
                      : CDRAG    0.1230E-02 UMIN    0.1000E+01
                      : LIM_PM   0.1300E+00

 not possible to compute, first iteration

  ** WARNING : Differences in wave height at the boundary
 Relative difference between input and computation >=   0.10
                         Hs[m]      Hs[m]      Hs[-]
     ix    iy  index   (input) (computed) (relative)
  --------------------------------------------------
     1    36     37       1.53       1.27       0.17
     1    35     36       1.53       0.86       0.44
     1    34     35       1.53       0.71       0.54
     1    33     34       1.53       0.64       0.58
     1    32     33       1.53       0.62       0.60
     1    31     32       1.53       0.60       0.61
     1    30     31       1.53       0.59       0.61
     1    29     30       1.53       0.59       0.62
     1    28     29       1.53       0.59       0.62
     1    27     28       1.53       0.58       0.62
     1    26     27       1.53       0.58       0.62
     1    25     26       1.53       0.58       0.62
     1    24     25       1.53       0.58       0.62
     1    23     24       1.53       0.58       0.62
     1    22     23       1.53       0.58       0.62
     1    21     22       1.53       0.58       0.62
     1    20     21       1.53       0.58       0.62
     1    19     20       1.53       0.58       0.62
     1    18     19       1.53       0.58       0.62
     1    17     18       1.53       0.58       0.62
     1    16     17       1.53       0.58       0.62
     1    15     16       1.53       0.58       0.62
     1    14     15       1.53       0.58       0.62
     1    13     14       1.53       0.58       0.62
     1    12     13       1.53       0.58       0.62
     1    11     12       1.53       0.58       0.62
     1    10     11       1.53       0.58       0.62
     1     9     10       1.53       0.58       0.62
     1     8      9       1.53       0.58       0.62
     1     7      8       1.53       0.59       0.62
     1     6      7       1.53       0.59       0.62
     1     5      6       1.53       0.59       0.61
     1     4      5       1.53       0.60       0.61
     1     3      4       1.53       0.64       0.58
     1     2      3       1.53       0.76       0.50

 Time of computation ->  20251124.003000      in sec:       1800.
 not possible to compute, first iteration

  ** WARNING : Differences in wave height at the boundary
 Relative difference between input and computation >=   0.10
                         Hs[m]      Hs[m]      Hs[-]
     ix    iy  index   (input) (computed) (relative)
  --------------------------------------------------
     1    36     37       1.53       1.27       0.17
     1    35     36       1.53       0.86       0.44
     1    34     35       1.53       0.71       0.54
     1    33     34       1.53       0.64       0.58
     1    32     33       1.53       0.62       0.60
     1    31     32       1.53       0.60       0.61
     1    30     31       1.53       0.59       0.61
     1    29     30       1.53       0.59       0.62
     1    28     29       1.53       0.59       0.62
     1    27     28       1.53       0.59       0.62
     1    26     27       1.53       0.58       0.62
     1    25     26       1.53       0.58       0.62
     1    24     25       1.53       0.58       0.62
     1    23     24       1.53       0.58       0.62
     1    22     23       1.53       0.58       0.62
     1    21     22       1.53       0.58       0.62
     1    20     21       1.53       0.58       0.62
     1    19     20       1.53       0.58       0.62
     1    18     19       1.53       0.58       0.62
     1    17     18       1.53       0.58       0.62
     1    16     17       1.53       0.58       0.62
     1    15     16       1.53       0.58       0.62
     1    14     15       1.53       0.58       0.62
     1    13     14       1.53       0.58       0.62
     1    12     13       1.53       0.58       0.62
     1    11     12       1.53       0.58       0.62
     1    10     11       1.53       0.58       0.62
     1     9     10       1.53       0.58       0.62
     1     8      9       1.53       0.58       0.62
     1     7      8       1.53       0.59       0.62
     1     6      7       1.53       0.59       0.62
     1     5      6       1.53       0.60       0.61
     1     4      5       1.53       0.61       0.60
     1     3      4       1.53       0.65       0.58
     1     2      3       1.53       0.77       0.50

 Time of computation ->  20251124.004500      in sec:       2700.
 not possible to compute, first iteration

  ** WARNING : Differences in wave height at the boundary
 Relative difference between input and computation >=   0.10
                         Hs[m]      Hs[m]      Hs[-]
     ix    iy  index   (input) (computed) (relative)
  --------------------------------------------------
     1    36     37       1.54       1.27       0.17
     1    35     36       1.54       0.86       0.44
     1    34     35       1.54       0.71       0.54
     1    33     34       1.54       0.65       0.58
     1    32     33       1.54       0.62       0.60
     1    31     32       1.54       0.60       0.61
     1    30     31       1.54       0.59       0.61
     1    29     30       1.54       0.59       0.62
     1    28     29       1.54       0.59       0.62
     1    27     28       1.54       0.59       0.62
     1    26     27       1.54       0.58       0.62
     1    25     26       1.54       0.58       0.62
     1    24     25       1.54       0.58       0.62
     1    23     24       1.54       0.58       0.62
     1    22     23       1.54       0.58       0.62
     1    21     22       1.54       0.58       0.62
     1    20     21       1.54       0.58       0.62
     1    19     20       1.54       0.58       0.62
     1    18     19       1.54       0.58       0.62
     1    17     18       1.54       0.58       0.62
     1    16     17       1.54       0.58       0.62
     1    15     16       1.54       0.58       0.62
     1    14     15       1.54       0.58       0.62
     1    13     14       1.54       0.58       0.62
     1    12     13       1.54       0.58       0.62
     1    11     12       1.54       0.58       0.62
     1    10     11       1.54       0.58       0.62
     1     9     10       1.54       0.58       0.62
     1     8      9       1.54       0.58       0.62
     1     7      8       1.54       0.59       0.62
     1     6      7       1.54       0.59       0.62
     1     5      6       1.54       0.60       0.61
     1     4      5       1.54       0.61       0.60
     1     3      4       1.54       0.65       0.57
     1     2      3       1.54       0.77       0.50

 Time of computation ->  20251124.010000      in sec:       3600.
 not possible to compute, first iteration

  ** WARNING : Differences in wave height at the boundary
 Relative difference between input and computation >=   0.10
                         Hs[m]      Hs[m]      Hs[-]
     ix    iy  index   (input) (computed) (relative)
  --------------------------------------------------
     1    36     37       1.54       1.27       0.18
     1    35     36       1.54       0.86       0.44
     1    34     35       1.54       0.71       0.54
     1    33     34       1.54       0.65       0.58
     1    32     33       1.54       0.62       0.60
     1    31     32       1.54       0.60       0.61
     1    30     31       1.54       0.59       0.61
     1    29     30       1.54       0.59       0.62
     1    28     29       1.54       0.59       0.62
     1    27     28       1.54       0.59       0.62
     1    26     27       1.54       0.58       0.62
     1    25     26       1.54       0.58       0.62
     1    24     25       1.54       0.58       0.62
     1    23     24       1.54       0.58       0.62
     1    22     23       1.54       0.58       0.62
     1    21     22       1.54       0.58       0.62
     1    20     21       1.54       0.58       0.62
     1    19     20       1.54       0.58       0.62
     1    18     19       1.54       0.58       0.62
     1    17     18       1.54       0.58       0.62
     1    16     17       1.54       0.58       0.62
     1    15     16       1.54       0.58       0.62
     1    14     15       1.54       0.58       0.62
     1    13     14       1.54       0.58       0.62
     1    12     13       1.54       0.58       0.62
     1    11     12       1.54       0.58       0.62
     1    10     11       1.54       0.58       0.62
     1     9     10       1.54       0.58       0.62
     1     8      9       1.54       0.58       0.62
     1     7      8       1.54       0.59       0.62
     1     6      7       1.54       0.59       0.62
     1     5      6       1.54       0.60       0.61
     1     4      5       1.54       0.61       0.60
     1     3      4       1.54       0.66       0.57
     1     2      3       1.54       0.78       0.50

 Time of computation ->  20251124.011500      in sec:       4500.
 not possible to compute, first iteration

  ** WARNING : Differences in wave height at the boundary
 Relative difference between input and computation >=   0.10
                         Hs[m]      Hs[m]      Hs[-]
     ix    iy  index   (input) (computed) (relative)
  --------------------------------------------------
     1    36     37       1.54       1.27       0.18
     1    35     36       1.54       0.86       0.44
     1    34     35       1.54       0.71       0.54
     1    33     34       1.54       0.65       0.58
     1    32     33       1.54       0.62       0.60
     1    31     32       1.54       0.60       0.61
     1    30     31       1.54       0.59       0.62
     1    29     30       1.54       0.59       0.62
     1    28     29       1.54       0.59       0.62
     1    27     28       1.54       0.59       0.62
     1    26     27       1.54       0.58       0.62
     1    25     26       1.54       0.58       0.62
     1    24     25       1.54       0.58       0.62
     1    23     24       1.54       0.58       0.62
     1    22     23       1.54       0.58       0.62
     1    21     22       1.54       0.58       0.62
     1    20     21       1.54       0.58       0.62
     1    19     20       1.54       0.58       0.62
     1    18     19       1.54       0.58       0.62
     1    17     18       1.54       0.58       0.62
     1    16     17       1.54       0.58       0.62
     1    15     16       1.54       0.58       0.62
     1    14     15       1.54       0.58       0.62
     1    13     14       1.54       0.58       0.62
     1    12     13       1.54       0.58       0.62
     1    11     12       1.54       0.58       0.62
     1    10     11       1.54       0.58       0.62
     1     9     10       1.54       0.58       0.62
     1     8      9       1.54       0.59       0.62
     1     7      8       1.54       0.59       0.62
     1     6      7       1.54       0.59       0.62
     1     5      6       1.54       0.60       0.61
     1     4      5       1.54       0.61       0.60
     1     3      4       1.54       0.66       0.57
     1     2      3       1.54       0.78       0.50

 Time of computation ->  20251124.013000      in sec:       5400.
 not possible to compute, first iteration

  ** WARNING : Differences in wave height at the boundary
 Relative difference between input and computation >=   0.10
                         Hs[m]      Hs[m]      Hs[-]
     ix    iy  index   (input) (computed) (relative)
  --------------------------------------------------
     1    36     37       1.55       1.27       0.18
     1    35     36       1.55       0.86       0.45
     1    34     35       1.55       0.71       0.54
     1    33     34       1.55       0.65       0.58
     1    32     33       1.55       0.62       0.60
     1    31     32       1.55       0.60       0.61
     1    30     31       1.55       0.59       0.62
     1    29     30       1.55       0.59       0.62
     1    28     29       1.55       0.59       0.62
     1    27     28       1.55       0.59       0.62
     1    26     27       1.55       0.58       0.62
     1    25     26       1.55       0.58       0.62
     1    24     25       1.55       0.58       0.62
     1    23     24       1.55       0.58       0.62
     1    22     23       1.55       0.58       0.62
     1    21     22       1.55       0.58       0.62
     1    20     21       1.55       0.58       0.62
     1    19     20       1.55       0.58       0.62
     1    18     19       1.55       0.58       0.62
     1    17     18       1.55       0.58       0.62
     1    16     17       1.55       0.58       0.62
     1    15     16       1.55       0.58       0.62
     1    14     15       1.55       0.58       0.62
     1    13     14       1.55       0.58       0.62
     1    12     13       1.55       0.58       0.62
     1    11     12       1.55       0.58       0.62
     1    10     11       1.55       0.58       0.62
     1     9     10       1.55       0.58       0.62
     1     8      9       1.55       0.59       0.62
     1     7      8       1.55       0.59       0.62
     1     6      7       1.55       0.59       0.62
     1     5      6       1.55       0.60       0.61
     1     4      5       1.55       0.61       0.60
     1     3      4       1.55       0.66       0.57
     1     2      3       1.55       0.78       0.49

 Time of computation ->  20251124.014500      in sec:       6300.
 not possible to compute, first iteration

  ** WARNING : Differences in wave height at the boundary
 Relative difference between input and computation >=   0.10
                         Hs[m]      Hs[m]      Hs[-]
     ix    iy  index   (input) (computed) (relative)
  --------------------------------------------------
     1    36     37       1.55       1.27       0.18
     1    35     36       1.55       0.86       0.45
     1    34     35       1.55       0.71       0.54
     1    33     34       1.55       0.65       0.58
     1    32     33       1.55       0.62       0.60
     1    31     32       1.55       0.60       0.61
     1    30     31       1.55       0.59       0.62
     1    29     30       1.55       0.59       0.62
     1    28     29       1.55       0.59       0.62
     1    27     28       1.55       0.59       0.62
     1    26     27       1.55       0.59       0.62
     1    25     26       1.55       0.58       0.62
     1    24     25       1.55       0.58       0.62
     1    23     24       1.55       0.58       0.62
     1    22     23       1.55       0.58       0.62
     1    21     22       1.55       0.58       0.62
     1    20     21       1.55       0.58       0.62
     1    19     20       1.55       0.58       0.62
     1    18     19       1.55       0.58       0.62
     1    17     18       1.55       0.58       0.62
     1    16     17       1.55       0.58       0.62
     1    15     16       1.55       0.58       0.62
     1    14     15       1.55       0.58       0.62
     1    13     14       1.55       0.58       0.62
     1    12     13       1.55       0.58       0.62
     1    11     12       1.55       0.58       0.62
     1    10     11       1.55       0.58       0.62
     1     9     10       1.55       0.58       0.62
     1     8      9       1.55       0.59       0.62
     1     7      8       1.55       0.59       0.62
     1     6      7       1.55       0.59       0.62
     1     5      6       1.55       0.60       0.61
     1     4      5       1.55       0.61       0.61
     1     3      4       1.55       0.66       0.58
     1     2      3       1.55       0.78       0.49

 Time of computation ->  20251124.020000      in sec:       7200.
 not possible to compute, first iteration

  ** WARNING : Differences in wave height at the boundary
 Relative difference between input and computation >=   0.10
                         Hs[m]      Hs[m]      Hs[-]
     ix    iy  index   (input) (computed) (relative)
  --------------------------------------------------
     1    36     37       1.55       1.28       0.18
     1    35     36       1.55       0.86       0.45
     1    34     35       1.55       0.71       0.54
     1    33     34       1.55       0.65       0.58
     1    32     33       1.55       0.62       0.60
     1    31     32       1.55       0.60       0.61
     1    30     31       1.55       0.59       0.62
     1    29     30       1.55       0.59       0.62
     1    28     29       1.55       0.59       0.62
     1    27     28       1.55       0.59       0.62
     1    26     27       1.55       0.59       0.62
     1    25     26       1.55       0.58       0.62
     1    24     25       1.55       0.58       0.62
     1    23     24       1.55       0.58       0.62
     1    22     23       1.55       0.58       0.62
     1    21     22       1.55       0.58       0.62
     1    20     21       1.55       0.58       0.62
     1    19     20       1.55       0.58       0.62
     1    18     19       1.55       0.58       0.62
     1    17     18       1.55       0.58       0.62
     1    16     17       1.55       0.58       0.62
     1    15     16       1.55       0.58       0.62
     1    14     15       1.55       0.58       0.62
     1    13     14       1.55       0.58       0.62
     1    12     13       1.55       0.58       0.62
     1    11     12       1.55       0.58       0.62
     1    10     11       1.55       0.58       0.62
     1     9     10       1.55       0.58       0.62
     1     8      9       1.55       0.59       0.62
     1     7      8       1.55       0.59       0.62
     1     6      7       1.55       0.59       0.62
     1     5      6       1.55       0.60       0.61
     1     4      5       1.55       0.61       0.61
     1     3      4       1.55       0.66       0.58
     1     2      3       1.55       0.79       0.49

 Time of computation ->  20251124.021500      in sec:       8100.
 not possible to compute, first iteration

  ** WARNING : Differences in wave height at the boundary
 Relative difference between input and computation >=   0.10
                         Hs[m]      Hs[m]      Hs[-]
     ix    iy  index   (input) (computed) (relative)
  --------------------------------------------------
     1    36     37       1.56       1.28       0.18
     1    35     36       1.56       0.86       0.45
     1    34     35       1.56       0.71       0.54
     1    33     34       1.56       0.65       0.59
     1    32     33       1.56       0.62       0.60
     1    31     32       1.56       0.60       0.61
     1    30     31       1.56       0.59       0.62
     1    29     30       1.56       0.59       0.62
     1    28     29       1.56       0.59       0.62
     1    27     28       1.56       0.59       0.62
     1    26     27       1.56       0.59       0.62
     1    25     26       1.56       0.58       0.62
     1    24     25       1.56       0.58       0.62
     1    23     24       1.56       0.58       0.63
     1    22     23       1.56       0.58       0.63
     1    21     22       1.56       0.58       0.63
     1    20     21       1.56       0.58       0.63
     1    19     20       1.56       0.58       0.63
     1    18     19       1.56       0.58       0.63
     1    17     18       1.56       0.58       0.63
     1    16     17       1.56       0.58       0.63
     1    15     16       1.56       0.58       0.63
     1    14     15       1.56       0.58       0.63
     1    13     14       1.56       0.58       0.63
     1    12     13       1.56       0.58       0.63
     1    11     12       1.56       0.58       0.63
     1    10     11       1.56       0.58       0.62
     1     9     10       1.56       0.59       0.62
     1     8      9       1.56       0.59       0.62
     1     7      8       1.56       0.59       0.62
     1     6      7       1.56       0.59       0.62
     1     5      6       1.56       0.60       0.61
     1     4      5       1.56       0.61       0.61
     1     3      4       1.56       0.66       0.58
     1     2      3       1.56       0.79       0.49

 Time of computation ->  20251124.023000      in sec:       9000.
 not possible to compute, first iteration

  ** WARNING : Differences in wave height at the boundary
 Relative difference between input and computation >=   0.10
                         Hs[m]      Hs[m]      Hs[-]
     ix    iy  index   (input) (computed) (relative)
  --------------------------------------------------
     1    36     37       1.56       1.28       0.18
     1    35     36       1.56       0.86       0.45
     1    34     35       1.56       0.71       0.55
     1    33     34       1.56       0.65       0.59
     1    32     33       1.56       0.62       0.60
     1    31     32       1.56       0.60       0.61
     1    30     31       1.56       0.59       0.62
     1    29     30       1.56       0.59       0.62
     1    28     29       1.56       0.59       0.62
     1    27     28       1.56       0.59       0.62
     1    26     27       1.56       0.59       0.62
     1    25     26       1.56       0.58       0.63
     1    24     25       1.56       0.58       0.63
     1    23     24       1.56       0.58       0.63
     1    22     23       1.56       0.58       0.63
     1    21     22       1.56       0.58       0.63
     1    20     21       1.56       0.58       0.63
     1    19     20       1.56       0.58       0.63
     1    18     19       1.56       0.58       0.63
     1    17     18       1.56       0.58       0.63
     1    16     17       1.56       0.58       0.63
     1    15     16       1.56       0.58       0.63
     1    14     15       1.56       0.58       0.63
     1    13     14       1.56       0.58       0.63
     1    12     13       1.56       0.58       0.63
     1    11     12       1.56       0.58       0.63
     1    10     11       1.56       0.58       0.63
     1     9     10       1.56       0.59       0.63
     1     8      9       1.56       0.59       0.62
     1     7      8       1.56       0.59       0.62
     1     6      7       1.56       0.59       0.62
     1     5      6       1.56       0.60       0.61
     1     4      5       1.56       0.61       0.61
     1     3      4       1.56       0.66       0.58
     1     2      3       1.56       0.79       0.49

 Time of computation ->  20251124.024500      in sec:       9900.
 not possible to compute, first iteration

  ** WARNING : Differences in wave height at the boundary
 Relative difference between input and computation >=   0.10
                         Hs[m]      Hs[m]      Hs[-]
     ix    iy  index   (input) (computed) (relative)
  --------------------------------------------------
     1    36     37       1.56       1.28       0.18
     1    35     36       1.56       0.86       0.45
     1    34     35       1.56       0.71       0.55
     1    33     34       1.56       0.65       0.59
     1    32     33       1.56       0.62       0.61
     1    31     32       1.56       0.60       0.61
     1    30     31       1.56       0.60       0.62
     1    29     30       1.56       0.59       0.62
     1    28     29       1.56       0.59       0.62
     1    27     28       1.56       0.59       0.62
     1    26     27       1.56       0.59       0.63
     1    25     26       1.56       0.59       0.63
     1    24     25       1.56       0.58       0.63
     1    23     24       1.56       0.58       0.63
     1    22     23       1.56       0.58       0.63
     1    21     22       1.56       0.58       0.63
     1    20     21       1.56       0.58       0.63
     1    19     20       1.56       0.58       0.63
     1    18     19       1.56       0.58       0.63
     1    17     18       1.56       0.58       0.63
     1    16     17       1.56       0.58       0.63
     1    15     16       1.56       0.58       0.63
     1    14     15       1.56       0.58       0.63
     1    13     14       1.56       0.58       0.63
     1    12     13       1.56       0.58       0.63
     1    11     12       1.56       0.58       0.63
     1    10     11       1.56       0.58       0.63
     1     9     10       1.56       0.59       0.63
     1     8      9       1.56       0.59       0.63
     1     7      8       1.56       0.59       0.62
     1     6      7       1.56       0.59       0.62
     1     5      6       1.56       0.60       0.62
     1     4      5       1.56       0.61       0.61
     1     3      4       1.56       0.66       0.58
     1     2      3       1.56       0.79       0.49

 Time of computation ->  20251124.030000      in sec:      10800.
 not possible to compute, first iteration

  ** WARNING : Differences in wave height at the boundary
 Relative difference between input and computation >=   0.10
                         Hs[m]      Hs[m]      Hs[-]
     ix    iy  index   (input) (computed) (relative)
  --------------------------------------------------
     1    36     37       1.57       1.28       0.18
     1    35     36       1.57       0.86       0.45
     1    34     35       1.57       0.71       0.55
     1    33     34       1.57       0.65       0.59
     1    32     33       1.57       0.62       0.61
     1    31     32       1.57       0.60       0.62
     1    30     31       1.57       0.60       0.62
     1    29     30       1.57       0.59       0.62
     1    28     29       1.57       0.59       0.62
     1    27     28       1.57       0.59       0.63
     1    26     27       1.57       0.59       0.63
     1    25     26       1.57       0.59       0.63
     1    24     25       1.57       0.58       0.63
     1    23     24       1.57       0.58       0.63
     1    22     23       1.57       0.58       0.63
     1    21     22       1.57       0.58       0.63
     1    20     21       1.57       0.58       0.63
     1    19     20       1.57       0.58       0.63
     1    18     19       1.57       0.58       0.63
     1    17     18       1.57       0.58       0.63
     1    16     17       1.57       0.58       0.63
     1    15     16       1.57       0.58       0.63
     1    14     15       1.57       0.58       0.63
     1    13     14       1.57       0.58       0.63
     1    12     13       1.57       0.58       0.63
     1    11     12       1.57       0.58       0.63
     1    10     11       1.57       0.58       0.63
     1     9     10       1.57       0.59       0.63
     1     8      9       1.57       0.59       0.63
     1     7      8       1.57       0.59       0.62
     1     6      7       1.57       0.59       0.62
     1     5      6       1.57       0.60       0.62
     1     4      5       1.57       0.62       0.61
     1     3      4       1.57       0.66       0.58
     1     2      3       1.57       0.80       0.49

 Time of computation ->  20251124.031500      in sec:      11700.
 not possible to compute, first iteration

  ** WARNING : Differences in wave height at the boundary
 Relative difference between input and computation >=   0.10
                         Hs[m]      Hs[m]      Hs[-]
     ix    iy  index   (input) (computed) (relative)
  --------------------------------------------------
     1    36     37       1.57       1.28       0.18
     1    35     36       1.57       0.86       0.45
     1    34     35       1.57       0.71       0.55
     1    33     34       1.57       0.65       0.59
     1    32     33       1.57       0.62       0.61
     1    31     32       1.57       0.60       0.62
     1    30     31       1.57       0.60       0.62
     1    29     30       1.57       0.59       0.62
     1    28     29       1.57       0.59       0.63
     1    27     28       1.57       0.59       0.63
     1    26     27       1.57       0.59       0.63
     1    25     26       1.57       0.59       0.63
     1    24     25       1.57       0.58       0.63
     1    23     24       1.57       0.58       0.63
     1    22     23       1.57       0.58       0.63
     1    21     22       1.57       0.58       0.63
     1    20     21       1.57       0.58       0.63
     1    19     20       1.57       0.58       0.63
     1    18     19       1.57       0.58       0.63
     1    17     18       1.57       0.58       0.63
     1    16     17       1.57       0.58       0.63
     1    15     16       1.57       0.58       0.63
     1    14     15       1.57       0.58       0.63
     1    13     14       1.57       0.58       0.63
     1    12     13       1.57       0.58       0.63
     1    11     12       1.57       0.58       0.63
     1    10     11       1.57       0.58       0.63
     1     9     10       1.57       0.59       0.63
     1     8      9       1.57       0.59       0.63
     1     7      8       1.57       0.59       0.62
     1     6      7       1.57       0.59       0.62
     1     5      6       1.57       0.60       0.62
     1     4      5       1.57       0.62       0.61
     1     3      4       1.57       0.67       0.58
     1     2      3       1.57       0.80       0.49

 Time of computation ->  20251124.033000      in sec:      12600.
 not possible to compute, first iteration

  ** WARNING : Differences in wave height at the boundary
 Relative difference between input and computation >=   0.10
                         Hs[m]      Hs[m]      Hs[-]
     ix    iy  index   (input) (computed) (relative)
  --------------------------------------------------
     1    36     37       1.57       1.28       0.18
     1    35     36       1.57       0.86       0.45
     1    34     35       1.57       0.71       0.55
     1    33     34       1.57       0.65       0.59
     1    32     33       1.57       0.62       0.61
     1    31     32       1.57       0.60       0.62
     1    30     31       1.57       0.59       0.62
     1    29     30       1.57       0.59       0.62
     1    28     29       1.57       0.59       0.63
     1    27     28       1.57       0.59       0.63
     1    26     27       1.57       0.59       0.63
     1    25     26       1.57       0.59       0.63
     1    24     25       1.57       0.58       0.63
     1    23     24       1.57       0.58       0.63
     1    22     23       1.57       0.58       0.63
     1    21     22       1.57       0.58       0.63
     1    20     21       1.57       0.58       0.63
     1    19     20       1.57       0.58       0.63
     1    18     19       1.57       0.58       0.63
     1    17     18       1.57       0.58       0.63
     1    16     17       1.57       0.58       0.63
     1    15     16       1.57       0.58       0.63
     1    14     15       1.57       0.58       0.63
     1    13     14       1.57       0.58       0.63
     1    12     13       1.57       0.58       0.63
     1    11     12       1.57       0.58       0.63
     1    10     11       1.57       0.58       0.63
     1     9     10       1.57       0.59       0.63
     1     8      9       1.57       0.59       0.63
     1     7      8       1.57       0.59       0.63
     1     6      7       1.57       0.59       0.62
     1     5      6       1.57       0.60       0.62
     1     4      5       1.57       0.62       0.61
     1     3      4       1.57       0.67       0.58
     1     2      3       1.57       0.80       0.49

 Time of computation ->  20251124.034500      in sec:      13500.
 not possible to compute, first iteration

  ** WARNING : Differences in wave height at the boundary
 Relative difference between input and computation >=   0.10
                         Hs[m]      Hs[m]      Hs[-]
     ix    iy  index   (input) (computed) (relative)
  --------------------------------------------------
     1    36     37       1.58       1.28       0.18
     1    35     36       1.58       0.86       0.45
     1    34     35       1.58       0.71       0.55
     1    33     34       1.58       0.65       0.59
     1    32     33       1.58       0.62       0.61
     1    31     32       1.58       0.60       0.62
     1    30     31       1.58       0.59       0.62
     1    29     30       1.58       0.59       0.63
     1    28     29       1.58       0.59       0.63
     1    27     28       1.58       0.59       0.63
     1    26     27       1.58       0.59       0.63
     1    25     26       1.58       0.58       0.63
     1    24     25       1.58       0.58       0.63
     1    23     24       1.58       0.58       0.63
     1    22     23       1.58       0.58       0.63
     1    21     22       1.58       0.58       0.63
     1    20     21       1.58       0.58       0.63
     1    19     20       1.58       0.58       0.63
     1    18     19       1.58       0.58       0.63
     1    17     18       1.58       0.58       0.63
     1    16     17       1.58       0.58       0.63
     1    15     16       1.58       0.58       0.63
     1    14     15       1.58       0.58       0.63
     1    13     14       1.58       0.58       0.63
     1    12     13       1.58       0.58       0.63
     1    11     12       1.58       0.58       0.63
     1    10     11       1.58       0.58       0.63
     1     9     10       1.58       0.59       0.63
     1     8      9       1.58       0.59       0.63
     1     7      8       1.58       0.59       0.63
     1     6      7       1.58       0.59       0.62
     1     5      6       1.58       0.60       0.62
     1     4      5       1.58       0.62       0.61
     1     3      4       1.58       0.67       0.58
     1     2      3       1.58       0.80       0.49

 Time of computation ->  20251124.040000      in sec:      14400.
 not possible to compute, first iteration

  ** WARNING : Differences in wave height at the boundary
 Relative difference between input and computation >=   0.10
                         Hs[m]      Hs[m]      Hs[-]
     ix    iy  index   (input) (computed) (relative)
  --------------------------------------------------
     1    36     37       1.58       1.29       0.19
     1    35     36       1.58       0.86       0.45
     1    34     35       1.58       0.71       0.55
     1    33     34       1.58       0.65       0.59
     1    32     33       1.58       0.62       0.61
     1    31     32       1.58       0.60       0.62
     1    30     31       1.58       0.59       0.62
     1    29     30       1.58       0.59       0.63
     1    28     29       1.58       0.59       0.63
     1    27     28       1.58       0.59       0.63
     1    26     27       1.58       0.59       0.63
     1    25     26       1.58       0.58       0.63
     1    24     25       1.58       0.58       0.63
     1    23     24       1.58       0.58       0.63
     1    22     23       1.58       0.58       0.63
     1    21     22       1.58       0.58       0.63
     1    20     21       1.58       0.58       0.63
     1    19     20       1.58       0.58       0.63
     1    18     19       1.58       0.58       0.63
     1    17     18       1.58       0.58       0.63
     1    16     17       1.58       0.58       0.63
     1    15     16       1.58       0.58       0.63
     1    14     15       1.58       0.58       0.63
     1    13     14       1.58       0.58       0.63
     1    12     13       1.58       0.58       0.63
     1    11     12       1.58       0.58       0.63
     1    10     11       1.58       0.58       0.63
     1     9     10       1.58       0.58       0.63
     1     8      9       1.58       0.59       0.63
     1     7      8       1.58       0.59       0.63
     1     6      7       1.58       0.59       0.62
     1     5      6       1.58       0.60       0.62
     1     4      5       1.58       0.62       0.61
     1     3      4       1.58       0.67       0.58
     1     2      3       1.58       0.80       0.49

 Time of computation ->  20251124.041500      in sec:      15300.
 not possible to compute, first iteration

  ** WARNING : Differences in wave height at the boundary
 Relative difference between input and computation >=   0.10
                         Hs[m]      Hs[m]      Hs[-]
     ix    iy  index   (input) (computed) (relative)
  --------------------------------------------------
     1    36     37       1.58       1.29       0.19
     1    35     36       1.58       0.86       0.45
     1    34     35       1.58       0.71       0.55
     1    33     34       1.58       0.65       0.59
     1    32     33       1.58       0.62       0.61
     1    31     32       1.58       0.60       0.62
     1    30     31       1.58       0.59       0.62
     1    29     30       1.58       0.59       0.63
     1    28     29       1.58       0.59       0.63
     1    27     28       1.58       0.59       0.63
     1    26     27       1.58       0.58       0.63
     1    25     26       1.58       0.58       0.63
     1    24     25       1.58       0.58       0.63
     1    23     24       1.58       0.58       0.63
     1    22     23       1.58       0.58       0.63
     1    21     22       1.58       0.58       0.63
     1    20     21       1.58       0.58       0.63
     1    19     20       1.58       0.58       0.63
     1    18     19       1.58       0.58       0.63
     1    17     18       1.58       0.58       0.63
     1    16     17       1.58       0.58       0.63
     1    15     16       1.58       0.58       0.63
     1    14     15       1.58       0.58       0.63
     1    13     14       1.58       0.58       0.63
     1    12     13       1.58       0.58       0.63
     1    11     12       1.58       0.58       0.63
     1    10     11       1.58       0.58       0.63
     1     9     10       1.58       0.58       0.63
     1     8      9       1.58       0.59       0.63
     1     7      8       1.58       0.59       0.63
     1     6      7       1.58       0.59       0.63
     1     5      6       1.58       0.60       0.62
     1     4      5       1.58       0.62       0.61
     1     3      4       1.58       0.67       0.58
     1     2      3       1.58       0.80       0.49

 Time of computation ->  20251124.043000      in sec:      16200.
 not possible to compute, first iteration

  ** WARNING : Differences in wave height at the boundary
 Relative difference between input and computation >=   0.10
                         Hs[m]      Hs[m]      Hs[-]
     ix    iy  index   (input) (computed) (relative)
  --------------------------------------------------
     1    36     37       1.58       1.29       0.19
     1    35     36       1.58       0.86       0.46
     1    34     35       1.58       0.71       0.55
     1    33     34       1.58       0.65       0.59
     1    32     33       1.58       0.62       0.61
     1    31     32       1.58       0.60       0.62
     1    30     31       1.58       0.59       0.63
     1    29     30       1.58       0.59       0.63
     1    28     29       1.58       0.59       0.63
     1    27     28       1.58       0.59       0.63
     1    26     27       1.58       0.58       0.63
     1    25     26       1.58       0.58       0.63
     1    24     25       1.58       0.58       0.63
     1    23     24       1.58       0.58       0.63
     1    22     23       1.58       0.58       0.63
     1    21     22       1.58       0.58       0.63
     1    20     21       1.58       0.58       0.63
     1    19     20       1.58       0.58       0.63
     1    18     19       1.58       0.58       0.63
     1    17     18       1.58       0.58       0.63
     1    16     17       1.58       0.58       0.63
     1    15     16       1.58       0.58       0.63
     1    14     15       1.58       0.58       0.63
     1    13     14       1.58       0.58       0.63
     1    12     13       1.58       0.58       0.63
     1    11     12       1.58       0.58       0.63
     1    10     11       1.58       0.58       0.63
     1     9     10       1.58       0.58       0.63
     1     8      9       1.58       0.59       0.63
     1     7      8       1.58       0.59       0.63
     1     6      7       1.58       0.59       0.63
     1     5      6       1.58       0.60       0.62
     1     4      5       1.58       0.62       0.61
     1     3      4       1.58       0.67       0.58
     1     2      3       1.58       0.81       0.49

 Time of computation ->  20251124.044500      in sec:      17100.
 not possible to compute, first iteration

  ** WARNING : Differences in wave height at the boundary
 Relative difference between input and computation >=   0.10
                         Hs[m]      Hs[m]      Hs[-]
     ix    iy  index   (input) (computed) (relative)
  --------------------------------------------------
     1    36     37       1.59       1.29       0.19
     1    35     36       1.59       0.86       0.46
     1    34     35       1.59       0.71       0.55
     1    33     34       1.59       0.64       0.59
     1    32     33       1.59       0.62       0.61
     1    31     32       1.59       0.60       0.62
     1    30     31       1.59       0.59       0.63
     1    29     30       1.59       0.59       0.63
     1    28     29       1.59       0.59       0.63
     1    27     28       1.59       0.58       0.63
     1    26     27       1.59       0.58       0.63
     1    25     26       1.59       0.58       0.63
     1    24     25       1.59       0.58       0.63
     1    23     24       1.59       0.58       0.63
     1    22     23       1.59       0.58       0.63
     1    21     22       1.59       0.58       0.63
     1    20     21       1.59       0.58       0.63
     1    19     20       1.59       0.58       0.63
     1    18     19       1.59       0.58       0.63
     1    17     18       1.59       0.58       0.63
     1    16     17       1.59       0.58       0.63
     1    15     16       1.59       0.58       0.63
     1    14     15       1.59       0.58       0.63
     1    13     14       1.59       0.58       0.63
     1    12     13       1.59       0.58       0.63
     1    11     12       1.59       0.58       0.63
     1    10     11       1.59       0.58       0.63
     1     9     10       1.59       0.58       0.63
     1     8      9       1.59       0.58       0.63
     1     7      8       1.59       0.59       0.63
     1     6      7       1.59       0.59       0.63
     1     5      6       1.59       0.60       0.62
     1     4      5       1.59       0.62       0.61
     1     3      4       1.59       0.67       0.58
     1     2      3       1.59       0.81       0.49

 Time of computation ->  20251124.050000      in sec:      18000.
 not possible to compute, first iteration

  ** WARNING : Differences in wave height at the boundary
 Relative difference between input and computation >=   0.10
                         Hs[m]      Hs[m]      Hs[-]
     ix    iy  index   (input) (computed) (relative)
  --------------------------------------------------
     1    36     37       1.59       1.29       0.19
     1    35     36       1.59       0.86       0.46
     1    34     35       1.59       0.71       0.55
     1    33     34       1.59       0.64       0.59
     1    32     33       1.59       0.61       0.61
     1    31     32       1.59       0.60       0.62
     1    30     31       1.59       0.59       0.63
     1    29     30       1.59       0.59       0.63
     1    28     29       1.59       0.59       0.63
     1    27     28       1.59       0.58       0.63
     1    26     27       1.59       0.58       0.63
     1    25     26       1.59       0.58       0.63
     1    24     25       1.59       0.58       0.63
     1    23     24       1.59       0.58       0.63
     1    22     23       1.59       0.58       0.63
     1    21     22       1.59       0.58       0.63
     1    20     21       1.59       0.58       0.63
     1    19     20       1.59       0.58       0.63
     1    18     19       1.59       0.58       0.63
     1    17     18       1.59       0.58       0.63
     1    16     17       1.59       0.58       0.63
     1    15     16       1.59       0.58       0.63
     1    14     15       1.59       0.58       0.63
     1    13     14       1.59       0.58       0.63
     1    12     13       1.59       0.58       0.63
     1    11     12       1.59       0.58       0.63
     1    10     11       1.59       0.58       0.63
     1     9     10       1.59       0.58       0.63
     1     8      9       1.59       0.58       0.63
     1     7      8       1.59       0.59       0.63
     1     6      7       1.59       0.59       0.63
     1     5      6       1.59       0.60       0.62
     1     4      5       1.59       0.61       0.61
     1     3      4       1.59       0.67       0.58
     1     2      3       1.59       0.81       0.49

 Time of computation ->  20251124.051500      in sec:      18900.
 not possible to compute, first iteration

  ** WARNING : Differences in wave height at the boundary
 Relative difference between input and computation >=   0.10
                         Hs[m]      Hs[m]      Hs[-]
     ix    iy  index   (input) (computed) (relative)
  --------------------------------------------------
     1    36     37       1.59       1.29       0.19
     1    35     36       1.59       0.86       0.46
     1    34     35       1.59       0.71       0.56
     1    33     34       1.59       0.64       0.60
     1    32     33       1.59       0.61       0.61
     1    31     32       1.59       0.60       0.62
     1    30     31       1.59       0.59       0.63
     1    29     30       1.59       0.59       0.63
     1    28     29       1.59       0.58       0.63
     1    27     28       1.59       0.58       0.63
     1    26     27       1.59       0.58       0.63
     1    25     26       1.59       0.58       0.63
     1    24     25       1.59       0.58       0.63
     1    23     24       1.59       0.58       0.63
     1    22     23       1.59       0.58       0.64
     1    21     22       1.59       0.58       0.64
     1    20     21       1.59       0.58       0.64
     1    19     20       1.59       0.58       0.64
     1    18     19       1.59       0.58       0.64
     1    17     18       1.59       0.58       0.64
     1    16     17       1.59       0.58       0.64
     1    15     16       1.59       0.58       0.64
     1    14     15       1.59       0.58       0.64
     1    13     14       1.59       0.58       0.64
     1    12     13       1.59       0.58       0.64
     1    11     12       1.59       0.58       0.63
     1    10     11       1.59       0.58       0.63
     1     9     10       1.59       0.58       0.63
     1     8      9       1.59       0.58       0.63
     1     7      8       1.59       0.58       0.63
     1     6      7       1.59       0.59       0.63
     1     5      6       1.59       0.60       0.62
     1     4      5       1.59       0.61       0.61
     1     3      4       1.59       0.67       0.58
     1     2      3       1.59       0.81       0.49

 Time of computation ->  20251124.053000      in sec:      19800.
 not possible to compute, first iteration

  ** WARNING : Differences in wave height at the boundary
 Relative difference between input and computation >=   0.10
                         Hs[m]      Hs[m]      Hs[-]
     ix    iy  index   (input) (computed) (relative)
  --------------------------------------------------
     1    36     37       1.59       1.29       0.19
     1    35     36       1.59       0.86       0.46
     1    34     35       1.59       0.71       0.56
     1    33     34       1.59       0.64       0.60
     1    32     33       1.59       0.61       0.62
     1    31     32       1.59       0.60       0.62
     1    30     31       1.59       0.59       0.63
     1    29     30       1.59       0.59       0.63
     1    28     29       1.59       0.58       0.63
     1    27     28       1.59       0.58       0.63
     1    26     27       1.59       0.58       0.64
     1    25     26       1.59       0.58       0.64
     1    24     25       1.59       0.58       0.64
     1    23     24       1.59       0.58       0.64
     1    22     23       1.59       0.58       0.64
     1    21     22       1.59       0.58       0.64
     1    20     21       1.59       0.58       0.64
     1    19     20       1.59       0.58       0.64
     1    18     19       1.59       0.58       0.64
     1    17     18       1.59       0.58       0.64
     1    16     17       1.59       0.58       0.64
     1    15     16       1.59       0.58       0.64
     1    14     15       1.59       0.58       0.64
     1    13     14       1.59       0.58       0.64
     1    12     13       1.59       0.58       0.64
     1    11     12       1.59       0.58       0.64
     1    10     11       1.59       0.58       0.64
     1     9     10       1.59       0.58       0.64
     1     8      9       1.59       0.58       0.63
     1     7      8       1.59       0.58       0.63
     1     6      7       1.59       0.59       0.63
     1     5      6       1.59       0.60       0.63
     1     4      5       1.59       0.61       0.62
     1     3      4       1.59       0.67       0.58
     1     2      3       1.59       0.81       0.49

 Time of computation ->  20251124.054500      in sec:      20700.
 not possible to compute, first iteration

  ** WARNING : Differences in wave height at the boundary
 Relative difference between input and computation >=   0.10
                         Hs[m]      Hs[m]      Hs[-]
     ix    iy  index   (input) (computed) (relative)
  --------------------------------------------------
     1    36     37       1.59       1.29       0.19
     1    35     36       1.59       0.86       0.46
     1    34     35       1.59       0.70       0.56
     1    33     34       1.59       0.64       0.60
     1    32     33       1.59       0.61       0.62
     1    31     32       1.59       0.60       0.63
     1    30     31       1.59       0.59       0.63
     1    29     30       1.59       0.58       0.63
     1    28     29       1.59       0.58       0.64
     1    27     28       1.59       0.58       0.64
     1    26     27       1.59       0.58       0.64
     1    25     26       1.59       0.58       0.64
     1    24     25       1.59       0.58       0.64
     1    23     24       1.59       0.58       0.64
     1    22     23       1.59       0.58       0.64
     1    21     22       1.59       0.58       0.64
     1    20     21       1.59       0.58       0.64
     1    19     20       1.59       0.58       0.64
     1    18     19       1.59       0.58       0.64
     1    17     18       1.59       0.58       0.64
     1    16     17       1.59       0.58       0.64
     1    15     16       1.59       0.58       0.64
     1    14     15       1.59       0.58       0.64
     1    13     14       1.59       0.58       0.64
     1    12     13       1.59       0.58       0.64
     1    11     12       1.59       0.58       0.64
     1    10     11       1.59       0.58       0.64
     1     9     10       1.59       0.58       0.64
     1     8      9       1.59       0.58       0.64
     1     7      8       1.59       0.58       0.64
     1     6      7       1.59       0.58       0.63
     1     5      6       1.59       0.59       0.63
     1     4      5       1.59       0.61       0.62
     1     3      4       1.59       0.67       0.58
     1     2      3       1.59       0.81       0.49

 Time of computation ->  20251124.060000      in sec:      21600.
 not possible to compute, first iteration

  ** WARNING : Differences in wave height at the boundary
 Relative difference between input and computation >=   0.10
                         Hs[m]      Hs[m]      Hs[-]
     ix    iy  index   (input) (computed) (relative)
  --------------------------------------------------
     1    36     37       1.59       1.29       0.19
     1    35     36       1.59       0.86       0.46
     1    34     35       1.59       0.70       0.56
     1    33     34       1.59       0.64       0.60
     1    32     33       1.59       0.61       0.62
     1    31     32       1.59       0.59       0.63
     1    30     31       1.59       0.58       0.63
     1    29     30       1.59       0.58       0.64
     1    28     29       1.59       0.58       0.64
     1    27     28       1.59       0.58       0.64
     1    26     27       1.59       0.57       0.64
     1    25     26       1.59       0.57       0.64
     1    24     25       1.59       0.57       0.64
     1    23     24       1.59       0.57       0.64
     1    22     23       1.59       0.57       0.64
     1    21     22       1.59       0.57       0.64
     1    20     21       1.59       0.57       0.64
     1    19     20       1.59       0.57       0.64
     1    18     19       1.59       0.57       0.64
     1    17     18       1.59       0.57       0.64
     1    16     17       1.59       0.57       0.64
     1    15     16       1.59       0.57       0.64
     1    14     15       1.59       0.57       0.64
     1    13     14       1.59       0.57       0.64
     1    12     13       1.59       0.57       0.64
     1    11     12       1.59       0.57       0.64
     1    10     11       1.59       0.57       0.64
     1     9     10       1.59       0.57       0.64
     1     8      9       1.59       0.58       0.64
     1     7      8       1.59       0.58       0.64
     1     6      7       1.59       0.58       0.63
     1     5      6       1.59       0.59       0.63
     1     4      5       1.59       0.61       0.62
     1     3      4       1.59       0.66       0.58
     1     2      3       1.59       0.81       0.49

 Time of computation ->  20251124.061500      in sec:      22500.
 Boundary data type TPAR processed, time:       43200.
 Boundary data type TPAR processed, time:       43200.
 not possible to compute, first iteration

  ** WARNING : Differences in wave height at the boundary
 Relative difference between input and computation >=   0.10
                         Hs[m]      Hs[m]      Hs[-]
     ix    iy  index   (input) (computed) (relative)
  --------------------------------------------------
     1    36     37       1.59       1.29       0.19
     1    35     36       1.59       0.86       0.46
     1    34     35       1.59       0.70       0.56
     1    33     34       1.59       0.64       0.60
     1    32     33       1.59       0.61       0.62
     1    31     32       1.59       0.59       0.63
     1    30     31       1.59       0.59       0.63
     1    29     30       1.59       0.58       0.63
     1    28     29       1.59       0.58       0.64
     1    27     28       1.59       0.58       0.64
     1    26     27       1.59       0.58       0.64
     1    25     26       1.59       0.58       0.64
     1    24     25       1.59       0.58       0.64
     1    23     24       1.59       0.58       0.64
     1    22     23       1.59       0.58       0.64
     1    21     22       1.59       0.58       0.64
     1    20     21       1.59       0.58       0.64
     1    19     20       1.59       0.58       0.64
     1    18     19       1.59       0.58       0.64
     1    17     18       1.59       0.58       0.64
     1    16     17       1.59       0.58       0.64
     1    15     16       1.59       0.58       0.64
     1    14     15       1.59       0.58       0.64
     1    13     14       1.59       0.58       0.64
     1    12     13       1.59       0.58       0.64
     1    11     12       1.59       0.58       0.64
     1    10     11       1.59       0.58       0.64
     1     9     10       1.59       0.58       0.64
     1     8      9       1.59       0.58       0.64
     1     7      8       1.59       0.58       0.64
     1     6      7       1.59       0.58       0.63
     1     5      6       1.59       0.59       0.63
     1     4      5       1.59       0.61       0.62
     1     3      4       1.59       0.66       0.58
     1     2      3       1.59       0.80       0.49

 Time of computation ->  20251124.063000      in sec:      23400.
 not possible to compute, first iteration

  ** WARNING : Differences in wave height at the boundary
 Relative difference between input and computation >=   0.10
                         Hs[m]      Hs[m]      Hs[-]
     ix    iy  index   (input) (computed) (relative)
  --------------------------------------------------
     1    36     37       1.59       1.29       0.19
     1    35     36       1.59       0.86       0.46
     1    34     35       1.59       0.71       0.55
     1    33     34       1.59       0.64       0.60
     1    32     33       1.59       0.61       0.61
     1    31     32       1.59       0.60       0.62
     1    30     31       1.59       0.59       0.63
     1    29     30       1.59       0.58       0.63
     1    28     29       1.59       0.58       0.63
     1    27     28       1.59       0.58       0.63
     1    26     27       1.59       0.58       0.64
     1    25     26       1.59       0.58       0.64
     1    24     25       1.59       0.58       0.64
     1    23     24       1.59       0.58       0.64
     1    22     23       1.59       0.58       0.64
     1    21     22       1.59       0.58       0.64
     1    20     21       1.59       0.58       0.64
     1    19     20       1.59       0.58       0.64
     1    18     19       1.59       0.58       0.64
     1    17     18       1.59       0.58       0.64
     1    16     17       1.59       0.58       0.64
     1    15     16       1.59       0.58       0.64
     1    14     15       1.59       0.58       0.64
     1    13     14       1.59       0.58       0.64
     1    12     13       1.59       0.58       0.64
     1    11     12       1.59       0.58       0.64
     1    10     11       1.59       0.58       0.64
     1     9     10       1.59       0.58       0.64
     1     8      9       1.59       0.58       0.64
     1     7      8       1.59       0.58       0.63
     1     6      7       1.59       0.58       0.63
     1     5      6       1.59       0.59       0.63
     1     4      5       1.59       0.61       0.62
     1     3      4       1.59       0.66       0.58
     1     2      3       1.59       0.80       0.50

 Time of computation ->  20251124.064500      in sec:      24300.
 not possible to compute, first iteration

  ** WARNING : Differences in wave height at the boundary
 Relative difference between input and computation >=   0.10
                         Hs[m]      Hs[m]      Hs[-]
     ix    iy  index   (input) (computed) (relative)
  --------------------------------------------------
     1    36     37       1.59       1.30       0.18
     1    35     36       1.59       0.87       0.45
     1    34     35       1.59       0.71       0.55
     1    33     34       1.59       0.65       0.59
     1    32     33       1.59       0.61       0.61
     1    31     32       1.59       0.60       0.62
     1    30     31       1.59       0.59       0.63
     1    29     30       1.59       0.59       0.63
     1    28     29       1.59       0.58       0.63
     1    27     28       1.59       0.58       0.63
     1    26     27       1.59       0.58       0.63
     1    25     26       1.59       0.58       0.63
     1    24     25       1.59       0.58       0.63
     1    23     24       1.59       0.58       0.63
     1    22     23       1.59       0.58       0.63
     1    21     22       1.59       0.58       0.63
     1    20     21       1.59       0.58       0.63
     1    19     20       1.59       0.58       0.63
     1    18     19       1.59       0.58       0.63
     1    17     18       1.59       0.58       0.63
     1    16     17       1.59       0.58       0.63
     1    15     16       1.59       0.58       0.63
     1    14     15       1.59       0.58       0.63
     1    13     14       1.59       0.58       0.63
     1    12     13       1.59       0.58       0.63
     1    11     12       1.59       0.58       0.63
     1    10     11       1.59       0.58       0.63
     1     9     10       1.59       0.58       0.63
     1     8      9       1.59       0.58       0.63
     1     7      8       1.59       0.58       0.63
     1     6      7       1.59       0.59       0.63
     1     5      6       1.59       0.59       0.63
     1     4      5       1.59       0.61       0.62
     1     3      4       1.59       0.66       0.58
     1     2      3       1.59       0.80       0.50

 Time of computation ->  20251124.070000      in sec:      25200.
 not possible to compute, first iteration

  ** WARNING : Differences in wave height at the boundary
 Relative difference between input and computation >=   0.10
                         Hs[m]      Hs[m]      Hs[-]
     ix    iy  index   (input) (computed) (relative)
  --------------------------------------------------
     1    36     37       1.59       1.30       0.18
     1    35     36       1.59       0.87       0.45
     1    34     35       1.59       0.71       0.55
     1    33     34       1.59       0.65       0.59
     1    32     33       1.59       0.62       0.61
     1    31     32       1.59       0.60       0.62
     1    30     31       1.59       0.59       0.63
     1    29     30       1.59       0.59       0.63
     1    28     29       1.59       0.59       0.63
     1    27     28       1.59       0.59       0.63
     1    26     27       1.59       0.58       0.63
     1    25     26       1.59       0.58       0.63
     1    24     25       1.59       0.58       0.63
     1    23     24       1.59       0.58       0.63
     1    22     23       1.59       0.58       0.63
     1    21     22       1.59       0.58       0.63
     1    20     21       1.59       0.58       0.63
     1    19     20       1.59       0.58       0.63
     1    18     19       1.59       0.58       0.63
     1    17     18       1.59       0.58       0.63
     1    16     17       1.59       0.58       0.63
     1    15     16       1.59       0.58       0.63
     1    14     15       1.59       0.58       0.63
     1    13     14       1.59       0.58       0.63
     1    12     13       1.59       0.58       0.63
     1    11     12       1.59       0.58       0.63
     1    10     11       1.59       0.58       0.63
     1     9     10       1.59       0.58       0.63
     1     8      9       1.59       0.58       0.63
     1     7      8       1.59       0.59       0.63
     1     6      7       1.59       0.59       0.63
     1     5      6       1.59       0.60       0.62
     1     4      5       1.59       0.61       0.62
     1     3      4       1.59       0.66       0.58
     1     2      3       1.59       0.80       0.50

 Time of computation ->  20251124.071500      in sec:      26100.
 not possible to compute, first iteration

  ** WARNING : Differences in wave height at the boundary
 Relative difference between input and computation >=   0.10
                         Hs[m]      Hs[m]      Hs[-]
     ix    iy  index   (input) (computed) (relative)
  --------------------------------------------------
     1    36     37       1.59       1.30       0.18
     1    35     36       1.59       0.87       0.45
     1    34     35       1.59       0.72       0.55
     1    33     34       1.59       0.65       0.59
     1    32     33       1.59       0.62       0.61
     1    31     32       1.59       0.61       0.62
     1    30     31       1.59       0.60       0.62
     1    29     30       1.59       0.59       0.63
     1    28     29       1.59       0.59       0.63
     1    27     28       1.59       0.59       0.63
     1    26     27       1.59       0.59       0.63
     1    25     26       1.59       0.59       0.63
     1    24     25       1.59       0.59       0.63
     1    23     24       1.59       0.59       0.63
     1    22     23       1.59       0.58       0.63
     1    21     22       1.59       0.58       0.63
     1    20     21       1.59       0.58       0.63
     1    19     20       1.59       0.58       0.63
     1    18     19       1.59       0.58       0.63
     1    17     18       1.59       0.58       0.63
     1    16     17       1.59       0.58       0.63
     1    15     16       1.59       0.58       0.63
     1    14     15       1.59       0.58       0.63
     1    13     14       1.59       0.58       0.63
     1    12     13       1.59       0.58       0.63
     1    11     12       1.59       0.58       0.63
     1    10     11       1.59       0.58       0.63
     1     9     10       1.59       0.59       0.63
     1     8      9       1.59       0.59       0.63
     1     7      8       1.59       0.59       0.63
     1     6      7       1.59       0.59       0.63
     1     5      6       1.59       0.60       0.62
     1     4      5       1.59       0.61       0.61
     1     3      4       1.59       0.66       0.58
     1     2      3       1.59       0.79       0.50

 Time of computation ->  20251124.073000      in sec:      27000.
 not possible to compute, first iteration

  ** WARNING : Differences in wave height at the boundary
 Relative difference between input and computation >=   0.10
                         Hs[m]      Hs[m]      Hs[-]
     ix    iy  index   (input) (computed) (relative)
  --------------------------------------------------
     1    36     37       1.58       1.31       0.18
     1    35     36       1.58       0.88       0.45
     1    34     35       1.58       0.72       0.54
     1    33     34       1.58       0.66       0.59
     1    32     33       1.58       0.62       0.61
     1    31     32       1.58       0.61       0.62
     1    30     31       1.58       0.60       0.62
     1    29     30       1.58       0.59       0.62
     1    28     29       1.58       0.59       0.63
     1    27     28       1.58       0.59       0.63
     1    26     27       1.58       0.59       0.63
     1    25     26       1.58       0.59       0.63
     1    24     25       1.58       0.59       0.63
     1    23     24       1.58       0.59       0.63
     1    22     23       1.58       0.59       0.63
     1    21     22       1.58       0.59       0.63
     1    20     21       1.58       0.59       0.63
     1    19     20       1.58       0.59       0.63
     1    18     19       1.58       0.59       0.63
     1    17     18       1.58       0.59       0.63
     1    16     17       1.58       0.59       0.63
     1    15     16       1.58       0.59       0.63
     1    14     15       1.58       0.59       0.63
     1    13     14       1.58       0.59       0.63
     1    12     13       1.58       0.59       0.63
     1    11     12       1.58       0.59       0.63
     1    10     11       1.58       0.59       0.63
     1     9     10       1.58       0.59       0.63
     1     8      9       1.58       0.59       0.63
     1     7      8       1.58       0.59       0.63
     1     6      7       1.58       0.59       0.63
     1     5      6       1.58       0.60       0.62
     1     4      5       1.58       0.61       0.61
     1     3      4       1.58       0.66       0.58
     1     2      3       1.58       0.79       0.50

 Time of computation ->  20251124.074500      in sec:      27900.
 not possible to compute, first iteration

  ** WARNING : Differences in wave height at the boundary
 Relative difference between input and computation >=   0.10
                         Hs[m]      Hs[m]      Hs[-]
     ix    iy  index   (input) (computed) (relative)
  --------------------------------------------------
     1    36     37       1.58       1.31       0.17
     1    35     36       1.58       0.88       0.44
     1    34     35       1.58       0.73       0.54
     1    33     34       1.58       0.66       0.58
     1    32     33       1.58       0.63       0.60
     1    31     32       1.58       0.61       0.61
     1    30     31       1.58       0.60       0.62
     1    29     30       1.58       0.60       0.62
     1    28     29       1.58       0.59       0.62
     1    27     28       1.58       0.59       0.63
     1    26     27       1.58       0.59       0.63
     1    25     26       1.58       0.59       0.63
     1    24     25       1.58       0.59       0.63
     1    23     24       1.58       0.59       0.63
     1    22     23       1.58       0.59       0.63
     1    21     22       1.58       0.59       0.63
     1    20     21       1.58       0.59       0.63
     1    19     20       1.58       0.59       0.63
     1    18     19       1.58       0.59       0.63
     1    17     18       1.58       0.59       0.63
     1    16     17       1.58       0.59       0.63
     1    15     16       1.58       0.59       0.63
     1    14     15       1.58       0.59       0.63
     1    13     14       1.58       0.59       0.63
     1    12     13       1.58       0.59       0.63
     1    11     12       1.58       0.59       0.63
     1    10     11       1.58       0.59       0.63
     1     9     10       1.58       0.59       0.63
     1     8      9       1.58       0.59       0.63
     1     7      8       1.58       0.59       0.63
     1     6      7       1.58       0.60       0.62
     1     5      6       1.58       0.60       0.62
     1     4      5       1.58       0.61       0.61
     1     3      4       1.58       0.66       0.58
     1     2      3       1.58       0.79       0.50

 Time of computation ->  20251124.080000      in sec:      28800.
 not possible to compute, first iteration

  ** WARNING : Differences in wave height at the boundary
 Relative difference between input and computation >=   0.10
                         Hs[m]      Hs[m]      Hs[-]
     ix    iy  index   (input) (computed) (relative)
  --------------------------------------------------
     1    36     37       1.58       1.31       0.17
     1    35     36       1.58       0.89       0.44
     1    34     35       1.58       0.73       0.54
     1    33     34       1.58       0.66       0.58
     1    32     33       1.58       0.63       0.60
     1    31     32       1.58       0.61       0.61
     1    30     31       1.58       0.61       0.62
     1    29     30       1.58       0.60       0.62
     1    28     29       1.58       0.60       0.62
     1    27     28       1.58       0.60       0.62
     1    26     27       1.58       0.59       0.62
     1    25     26       1.58       0.59       0.62
     1    24     25       1.58       0.59       0.63
     1    23     24       1.58       0.59       0.63
     1    22     23       1.58       0.59       0.63
     1    21     22       1.58       0.59       0.63
     1    20     21       1.58       0.59       0.63
     1    19     20       1.58       0.59       0.63
     1    18     19       1.58       0.59       0.63
     1    17     18       1.58       0.59       0.63
     1    16     17       1.58       0.59       0.63
     1    15     16       1.58       0.59       0.63
     1    14     15       1.58       0.59       0.63
     1    13     14       1.58       0.59       0.63
     1    12     13       1.58       0.59       0.63
     1    11     12       1.58       0.59       0.63
     1    10     11       1.58       0.59       0.63
     1     9     10       1.58       0.59       0.63
     1     8      9       1.58       0.59       0.62
     1     7      8       1.58       0.60       0.62
     1     6      7       1.58       0.60       0.62
     1     5      6       1.58       0.60       0.62
     1     4      5       1.58       0.62       0.61
     1     3      4       1.58       0.66       0.58
     1     2      3       1.58       0.79       0.50

 Time of computation ->  20251124.081500      in sec:      29700.
 not possible to compute, first iteration

  ** WARNING : Differences in wave height at the boundary
 Relative difference between input and computation >=   0.10
                         Hs[m]      Hs[m]      Hs[-]
     ix    iy  index   (input) (computed) (relative)
  --------------------------------------------------
     1    36     37       1.58       1.32       0.17
     1    35     36       1.58       0.89       0.44
     1    34     35       1.58       0.73       0.54
     1    33     34       1.58       0.67       0.58
     1    32     33       1.58       0.63       0.60
     1    31     32       1.58       0.62       0.61
     1    30     31       1.58       0.61       0.62
     1    29     30       1.58       0.60       0.62
     1    28     29       1.58       0.60       0.62
     1    27     28       1.58       0.60       0.62
     1    26     27       1.58       0.60       0.62
     1    25     26       1.58       0.60       0.62
     1    24     25       1.58       0.60       0.62
     1    23     24       1.58       0.60       0.62
     1    22     23       1.58       0.60       0.62
     1    21     22       1.58       0.60       0.62
     1    20     21       1.58       0.59       0.62
     1    19     20       1.58       0.59       0.62
     1    18     19       1.58       0.59       0.62
     1    17     18       1.58       0.59       0.62
     1    16     17       1.58       0.59       0.62
     1    15     16       1.58       0.59       0.62
     1    14     15       1.58       0.59       0.62
     1    13     14       1.58       0.59       0.62
     1    12     13       1.58       0.59       0.62
     1    11     12       1.58       0.59       0.62
     1    10     11       1.58       0.60       0.62
     1     9     10       1.58       0.60       0.62
     1     8      9       1.58       0.60       0.62
     1     7      8       1.58       0.60       0.62
     1     6      7       1.58       0.60       0.62
     1     5      6       1.58       0.61       0.62
     1     4      5       1.58       0.62       0.61
     1     3      4       1.58       0.66       0.58
     1     2      3       1.58       0.79       0.50

 Time of computation ->  20251124.083000      in sec:      30600.
 not possible to compute, first iteration

  ** WARNING : Differences in wave height at the boundary
 Relative difference between input and computation >=   0.10
                         Hs[m]      Hs[m]      Hs[-]
     ix    iy  index   (input) (computed) (relative)
  --------------------------------------------------
     1    36     37       1.58       1.32       0.16
     1    35     36       1.58       0.89       0.43
     1    34     35       1.58       0.74       0.53
[...]
     1    30     31       1.47       0.50       0.66
     1    29     30       1.47       0.49       0.67
     1    28     29       1.47       0.49       0.67
     1    27     28       1.47       0.48       0.67
     1    26     27       1.47       0.48       0.67
     1    25     26       1.47       0.48       0.67
     1    24     25       1.47       0.48       0.67
     1    23     24       1.47       0.48       0.67
     1    22     23       1.47       0.48       0.68
     1    21     22       1.47       0.48       0.68
     1    20     21       1.47       0.48       0.68
     1    19     20       1.47       0.48       0.68
     1    18     19       1.47       0.47       0.68
     1    17     18       1.47       0.47       0.68
     1    16     17       1.47       0.47       0.68
     1    15     16       1.47       0.47       0.68
     1    14     15       1.47       0.47       0.68
     1    13     14       1.47       0.47       0.68
     1    12     13       1.47       0.47       0.68
     1    11     12       1.47       0.47       0.68
     1    10     11       1.47       0.47       0.68
     1     9     10       1.47       0.46       0.68
     1     8      9       1.47       0.46       0.69
     1     7      8       1.47       0.46       0.69
     1     6      7       1.47       0.46       0.69
     1     5      6       1.47       0.46       0.69
     1     4      5       1.47       0.48       0.67
     1     3      4       1.47       0.53       0.64
     1     2      3       1.47       0.65       0.56
     1     1      2       1.47       1.29       0.12

 Time of computation ->  20251130.221500      in sec:     598500.
 not possible to compute, first iteration

  ** WARNING : Differences in wave height at the boundary
 Relative difference between input and computation >=   0.10
                         Hs[m]      Hs[m]      Hs[-]
     ix    iy  index   (input) (computed) (relative)
  --------------------------------------------------
     1    36     37       1.47       1.27       0.14
     1    35     36       1.47       0.84       0.43
     1    34     35       1.47       0.66       0.55
     1    33     34       1.47       0.58       0.61
     1    32     33       1.47       0.54       0.63
     1    31     32       1.47       0.51       0.65
     1    30     31       1.47       0.50       0.66
     1    29     30       1.47       0.49       0.67
     1    28     29       1.47       0.49       0.67
     1    27     28       1.47       0.48       0.67
     1    26     27       1.47       0.48       0.67
     1    25     26       1.47       0.48       0.67
     1    24     25       1.47       0.48       0.67
     1    23     24       1.47       0.48       0.67
     1    22     23       1.47       0.48       0.68
     1    21     22       1.47       0.48       0.68
     1    20     21       1.47       0.48       0.68
     1    19     20       1.47       0.48       0.68
     1    18     19       1.47       0.48       0.68
     1    17     18       1.47       0.48       0.68
     1    16     17       1.47       0.48       0.68
     1    15     16       1.47       0.47       0.68
     1    14     15       1.47       0.47       0.68
     1    13     14       1.47       0.47       0.68
     1    12     13       1.47       0.47       0.68
     1    11     12       1.47       0.47       0.68
     1    10     11       1.47       0.47       0.68
     1     9     10       1.47       0.46       0.68
     1     8      9       1.47       0.46       0.69
     1     7      8       1.47       0.46       0.69
     1     6      7       1.47       0.46       0.69
     1     5      6       1.47       0.46       0.68
     1     4      5       1.47       0.48       0.67
     1     3      4       1.47       0.53       0.64
     1     2      3       1.47       0.65       0.56
     1     1      2       1.47       1.30       0.12

 Time of computation ->  20251130.223000      in sec:     599400.
 not possible to compute, first iteration

  ** WARNING : Differences in wave height at the boundary
 Relative difference between input and computation >=   0.10
                         Hs[m]      Hs[m]      Hs[-]
     ix    iy  index   (input) (computed) (relative)
  --------------------------------------------------
     1    36     37       1.47       1.27       0.14
     1    35     36       1.47       0.84       0.43
     1    34     35       1.47       0.66       0.55
     1    33     34       1.47       0.58       0.61
     1    32     33       1.47       0.54       0.63
     1    31     32       1.47       0.51       0.65
     1    30     31       1.47       0.50       0.66
     1    29     30       1.47       0.49       0.67
     1    28     29       1.47       0.49       0.67
     1    27     28       1.47       0.49       0.67
     1    26     27       1.47       0.48       0.67
     1    25     26       1.47       0.48       0.67
     1    24     25       1.47       0.48       0.67
     1    23     24       1.47       0.48       0.67
     1    22     23       1.47       0.48       0.68
     1    21     22       1.47       0.48       0.68
     1    20     21       1.47       0.48       0.68
     1    19     20       1.47       0.48       0.68
     1    18     19       1.47       0.48       0.68
     1    17     18       1.47       0.48       0.68
     1    16     17       1.47       0.48       0.68
     1    15     16       1.47       0.48       0.68
     1    14     15       1.47       0.47       0.68
     1    13     14       1.47       0.47       0.68
     1    12     13       1.47       0.47       0.68
     1    11     12       1.47       0.47       0.68
     1    10     11       1.47       0.47       0.68
     1     9     10       1.47       0.46       0.68
     1     8      9       1.47       0.46       0.69
     1     7      8       1.47       0.46       0.69
     1     6      7       1.47       0.46       0.69
     1     5      6       1.47       0.46       0.68
     1     4      5       1.47       0.48       0.67
     1     3      4       1.47       0.53       0.64
     1     2      3       1.47       0.65       0.56
     1     1      2       1.47       1.30       0.12

 Time of computation ->  20251130.224500      in sec:     600300.
 not possible to compute, first iteration

  ** WARNING : Differences in wave height at the boundary
 Relative difference between input and computation >=   0.10
                         Hs[m]      Hs[m]      Hs[-]
     ix    iy  index   (input) (computed) (relative)
  --------------------------------------------------
     1    36     37       1.47       1.27       0.14
     1    35     36       1.47       0.84       0.43
     1    34     35       1.47       0.66       0.55
     1    33     34       1.47       0.58       0.61
     1    32     33       1.47       0.54       0.63
     1    31     32       1.47       0.51       0.65
     1    30     31       1.47       0.50       0.66
     1    29     30       1.47       0.49       0.67
     1    28     29       1.47       0.49       0.67
     1    27     28       1.47       0.49       0.67
     1    26     27       1.47       0.48       0.67
     1    25     26       1.47       0.48       0.67
     1    24     25       1.47       0.48       0.67
     1    23     24       1.47       0.48       0.67
     1    22     23       1.47       0.48       0.68
     1    21     22       1.47       0.48       0.68
     1    20     21       1.47       0.48       0.68
     1    19     20       1.47       0.48       0.68
     1    18     19       1.47       0.48       0.68
     1    17     18       1.47       0.48       0.68
     1    16     17       1.47       0.48       0.68
     1    15     16       1.47       0.48       0.68
     1    14     15       1.47       0.47       0.68
     1    13     14       1.47       0.47       0.68
     1    12     13       1.47       0.47       0.68
     1    11     12       1.47       0.47       0.68
     1    10     11       1.47       0.47       0.68
     1     9     10       1.47       0.47       0.68
     1     8      9       1.47       0.46       0.69
     1     7      8       1.47       0.46       0.69
     1     6      7       1.47       0.46       0.69
     1     5      6       1.47       0.46       0.68
     1     4      5       1.47       0.48       0.67
     1     3      4       1.47       0.53       0.64
     1     2      3       1.47       0.65       0.56
     1     1      2       1.47       1.30       0.12

 Time of computation ->  20251130.230000      in sec:     601200.
 not possible to compute, first iteration

  ** WARNING : Differences in wave height at the boundary
 Relative difference between input and computation >=   0.10
                         Hs[m]      Hs[m]      Hs[-]
     ix    iy  index   (input) (computed) (relative)
  --------------------------------------------------
     1    36     37       1.47       1.27       0.14
     1    35     36       1.47       0.84       0.43
     1    34     35       1.47       0.66       0.55
     1    33     34       1.47       0.58       0.61
     1    32     33       1.47       0.54       0.63
     1    31     32       1.47       0.51       0.65
     1    30     31       1.47       0.50       0.66
     1    29     30       1.47       0.49       0.66
     1    28     29       1.47       0.49       0.67
     1    27     28       1.47       0.49       0.67
     1    26     27       1.47       0.48       0.67
     1    25     26       1.47       0.48       0.67
     1    24     25       1.47       0.48       0.67
     1    23     24       1.47       0.48       0.67
     1    22     23       1.47       0.48       0.68
     1    21     22       1.47       0.48       0.68
     1    20     21       1.47       0.48       0.68
     1    19     20       1.47       0.48       0.68
     1    18     19       1.47       0.48       0.68
     1    17     18       1.47       0.48       0.68
     1    16     17       1.47       0.48       0.68
     1    15     16       1.47       0.48       0.68
     1    14     15       1.47       0.47       0.68
     1    13     14       1.47       0.47       0.68
     1    12     13       1.47       0.47       0.68
     1    11     12       1.47       0.47       0.68
     1    10     11       1.47       0.47       0.68
     1     9     10       1.47       0.47       0.68
     1     8      9       1.47       0.46       0.69
     1     7      8       1.47       0.46       0.69
     1     6      7       1.47       0.46       0.69
     1     5      6       1.47       0.46       0.68
     1     4      5       1.47       0.48       0.67
     1     3      4       1.47       0.53       0.64
     1     2      3       1.47       0.65       0.56
     1     1      2       1.47       1.30       0.12

 Time of computation ->  20251130.231500      in sec:     602100.
 not possible to compute, first iteration

  ** WARNING : Differences in wave height at the boundary
 Relative difference between input and computation >=   0.10
                         Hs[m]      Hs[m]      Hs[-]
     ix    iy  index   (input) (computed) (relative)
  --------------------------------------------------
     1    36     37       1.47       1.27       0.14
     1    35     36       1.47       0.84       0.43
     1    34     35       1.47       0.66       0.55
     1    33     34       1.47       0.58       0.61
     1    32     33       1.47       0.54       0.63
     1    31     32       1.47       0.51       0.65
     1    30     31       1.47       0.50       0.66
     1    29     30       1.47       0.49       0.66
     1    28     29       1.47       0.49       0.67
     1    27     28       1.47       0.49       0.67
     1    26     27       1.47       0.48       0.67
     1    25     26       1.47       0.48       0.67
     1    24     25       1.47       0.48       0.67
     1    23     24       1.47       0.48       0.67
     1    22     23       1.47       0.48       0.67
     1    21     22       1.47       0.48       0.68
     1    20     21       1.47       0.48       0.68
     1    19     20       1.47       0.48       0.68
     1    18     19       1.47       0.48       0.68
     1    17     18       1.47       0.48       0.68
     1    16     17       1.47       0.48       0.68
     1    15     16       1.47       0.48       0.68
     1    14     15       1.47       0.47       0.68
     1    13     14       1.47       0.47       0.68
     1    12     13       1.47       0.47       0.68
     1    11     12       1.47       0.47       0.68
     1    10     11       1.47       0.47       0.68
     1     9     10       1.47       0.47       0.68
     1     8      9       1.47       0.46       0.69
     1     7      8       1.47       0.46       0.69
     1     6      7       1.47       0.46       0.69
     1     5      6       1.47       0.46       0.68
     1     4      5       1.47       0.48       0.67
     1     3      4       1.47       0.53       0.64
     1     2      3       1.47       0.65       0.56
     1     1      2       1.47       1.30       0.12

 Time of computation ->  20251130.233000      in sec:     603000.
 not possible to compute, first iteration

  ** WARNING : Differences in wave height at the boundary
 Relative difference between input and computation >=   0.10
                         Hs[m]      Hs[m]      Hs[-]
     ix    iy  index   (input) (computed) (relative)
  --------------------------------------------------
     1    36     37       1.47       1.27       0.14
     1    35     36       1.47       0.84       0.43
     1    34     35       1.47       0.66       0.55
     1    33     34       1.47       0.58       0.61
     1    32     33       1.47       0.54       0.63
     1    31     32       1.47       0.51       0.65
     1    30     31       1.47       0.50       0.66
     1    29     30       1.47       0.49       0.66
     1    28     29       1.47       0.49       0.67
     1    27     28       1.47       0.49       0.67
     1    26     27       1.47       0.48       0.67
     1    25     26       1.47       0.48       0.67
     1    24     25       1.47       0.48       0.67
     1    23     24       1.47       0.48       0.67
     1    22     23       1.47       0.48       0.67
     1    21     22       1.47       0.48       0.68
     1    20     21       1.47       0.48       0.68
     1    19     20       1.47       0.48       0.68
     1    18     19       1.47       0.48       0.68
     1    17     18       1.47       0.48       0.68
     1    16     17       1.47       0.48       0.68
     1    15     16       1.47       0.48       0.68
     1    14     15       1.47       0.47       0.68
     1    13     14       1.47       0.47       0.68
     1    12     13       1.47       0.47       0.68
     1    11     12       1.47       0.47       0.68
     1    10     11       1.47       0.47       0.68
     1     9     10       1.47       0.47       0.68
     1     8      9       1.47       0.46       0.69
     1     7      8       1.47       0.46       0.69
     1     6      7       1.47       0.46       0.69
     1     5      6       1.47       0.46       0.68
     1     4      5       1.47       0.48       0.67
     1     3      4       1.47       0.53       0.64
     1     2      3       1.47       0.65       0.56
     1     1      2       1.47       1.30       0.12

 Time of computation ->  20251130.234500      in sec:     603900.
 not possible to compute, first iteration

  ** WARNING : Differences in wave height at the boundary
 Relative difference between input and computation >=   0.10
                         Hs[m]      Hs[m]      Hs[-]
     ix    iy  index   (input) (computed) (relative)
  --------------------------------------------------
     1    36     37       1.47       1.27       0.14
     1    35     36       1.47       0.84       0.43
     1    34     35       1.47       0.66       0.55
     1    33     34       1.47       0.58       0.61
     1    32     33       1.47       0.54       0.63
     1    31     32       1.47       0.51       0.65
     1    30     31       1.47       0.50       0.66
     1    29     30       1.47       0.49       0.66
     1    28     29       1.47       0.49       0.67
     1    27     28       1.47       0.49       0.67
     1    26     27       1.47       0.48       0.67
     1    25     26       1.47       0.48       0.67
     1    24     25       1.47       0.48       0.67
     1    23     24       1.47       0.48       0.67
     1    22     23       1.47       0.48       0.67
     1    21     22       1.47       0.48       0.68
     1    20     21       1.47       0.48       0.68
     1    19     20       1.47       0.48       0.68
     1    18     19       1.47       0.48       0.68
     1    17     18       1.47       0.48       0.68
     1    16     17       1.47       0.48       0.68
     1    15     16       1.47       0.48       0.68
     1    14     15       1.47       0.47       0.68
     1    13     14       1.47       0.47       0.68
     1    12     13       1.47       0.47       0.68
     1    11     12       1.47       0.47       0.68
     1    10     11       1.47       0.47       0.68
     1     9     10       1.47       0.47       0.68
     1     8      9       1.47       0.46       0.69
     1     7      8       1.47       0.46       0.69
     1     6      7       1.47       0.46       0.69
     1     5      6       1.47       0.46       0.68
     1     4      5       1.47       0.48       0.67
     1     3      4       1.47       0.53       0.64
     1     2      3       1.47       0.65       0.56
     1     1      2       1.47       1.29       0.12

 Time of computation ->  20251201.000000      in sec:     604800.
 not possible to compute, first iteration

  ** WARNING : Differences in wave height at the boundary
 Relative difference between input and computation >=   0.10
                         Hs[m]      Hs[m]      Hs[-]
     ix    iy  index   (input) (computed) (relative)
  --------------------------------------------------
     1    36     37       1.47       1.26       0.14
     1    35     36       1.47       0.84       0.43
     1    34     35       1.47       0.66       0.55
     1    33     34       1.47       0.58       0.61
     1    32     33       1.47       0.54       0.63
     1    31     32       1.47       0.51       0.65
     1    30     31       1.47       0.50       0.66
     1    29     30       1.47       0.49       0.66
     1    28     29       1.47       0.49       0.67
     1    27     28       1.47       0.49       0.67
     1    26     27       1.47       0.48       0.67
     1    25     26       1.47       0.48       0.67
     1    24     25       1.47       0.48       0.67
     1    23     24       1.47       0.48       0.67
     1    22     23       1.47       0.48       0.67
     1    21     22       1.47       0.48       0.68
     1    20     21       1.47       0.48       0.68
     1    19     20       1.47       0.48       0.68
     1    18     19       1.47       0.48       0.68
     1    17     18       1.47       0.48       0.68
     1    16     17       1.47       0.48       0.68
     1    15     16       1.47       0.48       0.68
     1    14     15       1.47       0.47       0.68
     1    13     14       1.47       0.47       0.68
     1    12     13       1.47       0.47       0.68
     1    11     12       1.47       0.47       0.68
     1    10     11       1.47       0.47       0.68
     1     9     10       1.47       0.47       0.68
     1     8      9       1.47       0.46       0.69
     1     7      8       1.47       0.46       0.69
     1     6      7       1.47       0.46       0.69
     1     5      6       1.47       0.46       0.68
     1     4      5       1.47       0.48       0.67
     1     3      4       1.47       0.53       0.64
     1     2      3       1.47       0.65       0.56
     1     1      2       1.47       1.29       0.12

    
 STOP
