1

                    Execution started at 20251123.152059         



                    ---------------------------------------
                                     SWAN
                    SIMULATION OF WAVES IN NEAR SHORE AREAS
                             VERSION NUMBER 41.51               
                    ---------------------------------------


    
 $ SWAN INPUT: AHANGAMA (7 DAY / 3 HR)
    
 PROJECT 'AHANGAMA' '1'
    
 MODE NONSTATIONARY
    
 COORDINATES SPHERICAL
    
 
    
 $ 1. GRID
    
 CGRID REGULAR 80.252083 5.852083 0.0 0.1458 0.1458 35 35 CIRCLE 36 0.05 1.0 24
 Resolution in sigma-space: df/f =  0.1329
    
 INPGRID BOTTOM 80.252083 5.852083 0.0 35 35 0.004167 0.004167 EXC -99
    
 READGRID BOTTOM 1 'ahangama.bot' 1 0 FREE
 ** Warning          : Point removed from computational grid
Point with index (    21,     6) was removed from computational grid because it is an isolated wet point or is part of a 1D configuration or 1D connection.
    
 
    
 $ 2. BOUNDARIES
    
 BOUND SHAPE JONSWAP 3.3 PEAK DSPR DEGREES
    
 
    
 $ SOUTH BOUNDARY (Primary Swell Source for South Coast)
    
 BOUNDSPEC SIDE SOUTH CONSTANT FILE 'ahangama_boundary.bnd'
    
 
    
 $ WEST BOUNDARY (Secondary Source - replacing East!)
    
 $ Ahangama is South-West coast, so energy comes from S and W.
    
 BOUNDSPEC SIDE WEST CONSTANT FILE 'ahangama_boundary_copy.bnd'
    
 
    
 $ 3. PHYSICS
    
 BREAKING CON 1.0 0.73
    
 FRICTION JONSWAP CONSTANT 0.067
    
 OFF WCAP
    
 OFF QUAD
    
 
    
 $ 4. NUMERICS
    
 PROP BSBT
    
 NUMERIC STOPC 0.005 0.005 0.005 95. STAT 15
    
 
    
 $ 5. OUTPUT POINTS (Updated for Ahangama Grid)
    
 $ DEEP: Near the SW corner of your grid
    
 POINTS 'DEEP' 80.2600 5.8600
    
 
    
 $ MID: Halfway to the surf
    
 POINTS 'MID'  80.3100 5.9100
    
 
    
 $ SURF: Just offshore of Ahangama (5.970)
    
 POINTS 'SURF' 80.3630 5.9650
    
 
    
 $ OUTPUT TABLES
    
 TABLE 'DEEP' HEAD 'deep_forecast.tbl' HS TPS DIR DEPTH QB OUTPUT 20251123.0900 3 HR
    
 TABLE 'MID'  HEAD 'mid_forecast.tbl'  HS TPS DIR DEPTH QB OUTPUT 20251123.0900 3 HR
    
 TABLE 'SURF' HEAD 'surf_forecast.tbl' HS TPS DIR DEPTH QB OUTPUT 20251123.0900 3 HR
    
 
    
 $ 6. RUN
    
 COMPUTE 20251123.0900 15 MIN 20251130.0900
 ** Warning          : Limiter is de-activated in case of no quadruplets
 Boundary data type TPAR processed, time:       32400.
 Boundary data type TPAR processed, time:       32400.
 Time of computation ->  20251123.091500      in sec:      33300.
 Boundary data type TPAR processed, time:       43200.
 Boundary data type TPAR processed, time:       43200.

----------------------------------------------------------------
                  COMPUTATIONAL PART OF SWAN
----------------------------------------------------------------

 Gridresolution       : MXC              36 MYC             36
                      : MCGRD          1128
                      : MSC              25 MDC             36
                      : MTC             672
                      : NSTATC            1 ITERMX           1
 Propagation flags    : ITFRE             1 IREFR            1
 Source term flags    : IBOT              1 ISURF            1
                      : IWCAP             0 IWIND            0
                      : ITRIAD            0 IQUAD            0
                      : IBRAG             0 IQCM             0
                      : IVEG              0 ITURBV           0
                      : IMUD              0 IICE             0
 Spatial step         : DX       0.4166E-02 DY      0.4166E-02
 Spectral bin         : df/f     0.1329E+00 DDIR    0.1000E+02
 Physical constants   : GRAV     0.9810E+01 RHO     0.1025E+04
 Wind input           : WSPEED   0.0000E+00 DIR     0.0000E+00
                      : ICEWIND  0.00
 Tail parameters      : E(f)     0.4000E+01 E(k)    0.2500E+01
                      : A(f)     0.5000E+01 A(k)    0.3000E+01
 Accuracy parameters  : DREL     0.5000E-02 NPNTS   0.9500E+02
                      : DHABS    0.5000E-02 CURVAT  0.5000E-02
                      : GRWMX    0.1000E+21
 Drying/flooding      : LEVEL    0.0000E+00 DEPMIN  0.5000E-01
 The Cartesian convention for wind and wave directions is used
 Scheme for geographic propagation is BSBT  
 Scheme geogr. space  : PROPSC            1 ICMAX            5
 Scheme spectral space: CSS      0.5000E+00 CDD     0.5000E+00
 Current is off
 Quadruplets is off
 Triads is off
 Bragg scattering is off
 QC scattering is off
 Surfbeat (IEM) is off
 JONSWAP (`73)        : GAMMA    0.6700E-01
 Vegetation is off
 Turbulence is off
 Fluid mud is off
 Dissipation by sea ice is off
 Whitecapping is off
 Battjes&Janssen (`78): ALPHA    0.1000E+01 GAMMA   0.7300E+00
 Set-up is off
 Diffraction is off
 Janssen (`89,`90)    : ALPHA    0.1000E-01 KAPPA   0.4100E+00
 Janssen (`89,`90)    : RHOA     0.1280E+01 RHOW    0.1025E+04

 1st and 2nd gen. wind: CF10     0.1880E+03 CF20    0.5900E+00
                      : CF30     0.1200E+00 CF40    0.2500E+03
                      : CF50     0.2300E-02 CF60   -0.2230E+00
                      : CF70     0.0000E+00 CF80   -0.5600E+00
                      : RHOAW    0.1249E-02 EDMLPM  0.3600E-02
                      : CDRAG    0.1230E-02 UMIN    0.1000E+01
                      : LIM_PM   0.1300E+00

 not possible to compute, first iteration

  ** WARNING : Differences in wave height at the boundary
 Relative difference between input and computation >=   0.10
                         Hs[m]      Hs[m]      Hs[-]
     ix    iy  index   (input) (computed) (relative)
  --------------------------------------------------
     1    36     37       1.12       0.79       0.30
     1    35     36       1.12       0.50       0.56
     1    34     35       1.12       0.40       0.64
     1    33     34       1.12       0.37       0.67
     1    32     33       1.12       0.35       0.69
     1    31     32       1.12       0.35       0.69
     1    30     31       1.12       0.34       0.69
     1    29     30       1.12       0.34       0.69
     1    28     29       1.12       0.34       0.69
     1    27     28       1.12       0.34       0.69
     1    26     27       1.12       0.34       0.69
     1    25     26       1.12       0.34       0.69
     1    24     25       1.12       0.34       0.69
     1    23     24       1.12       0.34       0.69
     1    22     23       1.12       0.34       0.69
     1    21     22       1.12       0.34       0.69
     1    20     21       1.12       0.34       0.69
     1    19     20       1.12       0.34       0.69
     1    18     19       1.12       0.34       0.69
     1    17     18       1.12       0.34       0.69
     1    16     17       1.12       0.34       0.69
     1    15     16       1.12       0.34       0.69
     1    14     15       1.12       0.34       0.69
     1    13     14       1.12       0.34       0.69
     1    12     13       1.12       0.34       0.69
     1    11     12       1.12       0.34       0.70
     1    10     11       1.12       0.34       0.70
     1     9     10       1.12       0.34       0.69
     1     8      9       1.12       0.34       0.69
     1     7      8       1.12       0.35       0.69
     1     6      7       1.12       0.35       0.68
     1     5      6       1.12       0.37       0.67
     1     4      5       1.12       0.41       0.64
     1     3      4       1.12       0.48       0.57
     1     2      3       1.12       0.64       0.43

 Time of computation ->  20251123.093000      in sec:      34200.
 not possible to compute, first iteration

  ** WARNING : Differences in wave height at the boundary
 Relative difference between input and computation >=   0.10
                         Hs[m]      Hs[m]      Hs[-]
     ix    iy  index   (input) (computed) (relative)
  --------------------------------------------------
     1    36     37       1.12       0.78       0.30
     1    35     36       1.12       0.50       0.56
     1    34     35       1.12       0.40       0.64
     1    33     34       1.12       0.37       0.67
     1    32     33       1.12       0.35       0.68
     1    31     32       1.12       0.35       0.69
     1    30     31       1.12       0.34       0.69
     1    29     30       1.12       0.34       0.69
     1    28     29       1.12       0.34       0.69
     1    27     28       1.12       0.34       0.69
     1    26     27       1.12       0.34       0.69
     1    25     26       1.12       0.34       0.69
     1    24     25       1.12       0.34       0.69
     1    23     24       1.12       0.34       0.69
     1    22     23       1.12       0.34       0.69
     1    21     22       1.12       0.34       0.69
     1    20     21       1.12       0.34       0.69
     1    19     20       1.12       0.34       0.69
     1    18     19       1.12       0.34       0.69
     1    17     18       1.12       0.34       0.69
     1    16     17       1.12       0.34       0.69
     1    15     16       1.12       0.34       0.69
     1    14     15       1.12       0.34       0.69
     1    13     14       1.12       0.34       0.69
     1    12     13       1.12       0.34       0.69
     1    11     12       1.12       0.34       0.69
     1    10     11       1.12       0.34       0.69
     1     9     10       1.12       0.34       0.69
     1     8      9       1.12       0.34       0.69
     1     7      8       1.12       0.35       0.69
     1     6      7       1.12       0.36       0.68
     1     5      6       1.12       0.38       0.66
     1     4      5       1.12       0.41       0.63
     1     3      4       1.12       0.49       0.56
     1     2      3       1.12       0.64       0.43

 Time of computation ->  20251123.094500      in sec:      35100.
 not possible to compute, first iteration

  ** WARNING : Differences in wave height at the boundary
 Relative difference between input and computation >=   0.10
                         Hs[m]      Hs[m]      Hs[-]
     ix    iy  index   (input) (computed) (relative)
  --------------------------------------------------
     1    36     37       1.11       0.78       0.30
     1    35     36       1.11       0.49       0.56
     1    34     35       1.11       0.40       0.64
     1    33     34       1.11       0.37       0.67
     1    32     33       1.11       0.35       0.68
     1    31     32       1.11       0.35       0.69
     1    30     31       1.11       0.34       0.69
     1    29     30       1.11       0.34       0.69
     1    28     29       1.11       0.34       0.69
     1    27     28       1.11       0.34       0.69
     1    26     27       1.11       0.34       0.69
     1    25     26       1.11       0.34       0.69
     1    24     25       1.11       0.34       0.69
     1    23     24       1.11       0.34       0.69
     1    22     23       1.11       0.34       0.69
     1    21     22       1.11       0.34       0.69
     1    20     21       1.11       0.34       0.69
     1    19     20       1.11       0.34       0.69
     1    18     19       1.11       0.34       0.69
     1    17     18       1.11       0.34       0.69
     1    16     17       1.11       0.34       0.69
     1    15     16       1.11       0.34       0.69
     1    14     15       1.11       0.34       0.69
     1    13     14       1.11       0.34       0.69
     1    12     13       1.11       0.34       0.69
     1    11     12       1.11       0.34       0.69
     1    10     11       1.11       0.34       0.69
     1     9     10       1.11       0.34       0.69
     1     8      9       1.11       0.34       0.69
     1     7      8       1.11       0.35       0.69
     1     6      7       1.11       0.36       0.68
     1     5      6       1.11       0.38       0.66
     1     4      5       1.11       0.41       0.63
     1     3      4       1.11       0.49       0.56
     1     2      3       1.11       0.64       0.42

 Time of computation ->  20251123.100000      in sec:      36000.
 not possible to compute, first iteration

  ** WARNING : Differences in wave height at the boundary
 Relative difference between input and computation >=   0.10
                         Hs[m]      Hs[m]      Hs[-]
     ix    iy  index   (input) (computed) (relative)
  --------------------------------------------------
     1    36     37       1.11       0.78       0.30
     1    35     36       1.11       0.49       0.56
     1    34     35       1.11       0.40       0.64
     1    33     34       1.11       0.37       0.67
     1    32     33       1.11       0.35       0.68
     1    31     32       1.11       0.35       0.69
     1    30     31       1.11       0.34       0.69
     1    29     30       1.11       0.34       0.69
     1    28     29       1.11       0.34       0.69
     1    27     28       1.11       0.34       0.69
     1    26     27       1.11       0.34       0.69
     1    25     26       1.11       0.34       0.69
     1    24     25       1.11       0.34       0.69
     1    23     24       1.11       0.34       0.69
     1    22     23       1.11       0.34       0.69
     1    21     22       1.11       0.34       0.69
     1    20     21       1.11       0.34       0.69
     1    19     20       1.11       0.34       0.69
     1    18     19       1.11       0.34       0.69
     1    17     18       1.11       0.34       0.69
     1    16     17       1.11       0.34       0.69
     1    15     16       1.11       0.34       0.69
     1    14     15       1.11       0.34       0.69
     1    13     14       1.11       0.34       0.69
     1    12     13       1.11       0.34       0.69
     1    11     12       1.11       0.34       0.69
     1    10     11       1.11       0.34       0.69
     1     9     10       1.11       0.34       0.69
     1     8      9       1.11       0.35       0.69
     1     7      8       1.11       0.35       0.69
     1     6      7       1.11       0.36       0.68
     1     5      6       1.11       0.38       0.66
     1     4      5       1.11       0.41       0.63
     1     3      4       1.11       0.49       0.56
     1     2      3       1.11       0.64       0.42

 Time of computation ->  20251123.101500      in sec:      36900.
 not possible to compute, first iteration

  ** WARNING : Differences in wave height at the boundary
 Relative difference between input and computation >=   0.10
                         Hs[m]      Hs[m]      Hs[-]
     ix    iy  index   (input) (computed) (relative)
  --------------------------------------------------
     1    36     37       1.11       0.78       0.30
     1    35     36       1.11       0.49       0.56
     1    34     35       1.11       0.40       0.64
     1    33     34       1.11       0.37       0.67
     1    32     33       1.11       0.35       0.68
     1    31     32       1.11       0.35       0.69
     1    30     31       1.11       0.34       0.69
     1    29     30       1.11       0.34       0.69
     1    28     29       1.11       0.34       0.69
     1    27     28       1.11       0.34       0.69
     1    26     27       1.11       0.34       0.69
     1    25     26       1.11       0.34       0.69
     1    24     25       1.11       0.34       0.69
     1    23     24       1.11       0.34       0.69
     1    22     23       1.11       0.34       0.69
     1    21     22       1.11       0.34       0.69
     1    20     21       1.11       0.34       0.69
     1    19     20       1.11       0.34       0.69
     1    18     19       1.11       0.34       0.69
     1    17     18       1.11       0.34       0.69
     1    16     17       1.11       0.34       0.69
     1    15     16       1.11       0.34       0.69
     1    14     15       1.11       0.34       0.69
     1    13     14       1.11       0.34       0.69
     1    12     13       1.11       0.34       0.69
     1    11     12       1.11       0.34       0.69
     1    10     11       1.11       0.34       0.69
     1     9     10       1.11       0.34       0.69
     1     8      9       1.11       0.35       0.69
     1     7      8       1.11       0.35       0.68
     1     6      7       1.11       0.36       0.68
     1     5      6       1.11       0.38       0.66
     1     4      5       1.11       0.41       0.63
     1     3      4       1.11       0.49       0.56
     1     2      3       1.11       0.64       0.42

 Time of computation ->  20251123.103000      in sec:      37800.
 not possible to compute, first iteration

  ** WARNING : Differences in wave height at the boundary
 Relative difference between input and computation >=   0.10
                         Hs[m]      Hs[m]      Hs[-]
     ix    iy  index   (input) (computed) (relative)
  --------------------------------------------------
     1    36     37       1.11       0.77       0.30
     1    35     36       1.11       0.49       0.56
     1    34     35       1.11       0.40       0.64
     1    33     34       1.11       0.36       0.67
     1    32     33       1.11       0.35       0.68
     1    31     32       1.11       0.35       0.69
     1    30     31       1.11       0.34       0.69
     1    29     30       1.11       0.34       0.69
     1    28     29       1.11       0.34       0.69
     1    27     28       1.11       0.34       0.69
     1    26     27       1.11       0.34       0.69
     1    25     26       1.11       0.34       0.69
     1    24     25       1.11       0.34       0.69
     1    23     24       1.11       0.34       0.69
     1    22     23       1.11       0.34       0.69
     1    21     22       1.11       0.34       0.69
     1    20     21       1.11       0.34       0.69
     1    19     20       1.11       0.34       0.69
     1    18     19       1.11       0.34       0.69
     1    17     18       1.11       0.34       0.69
     1    16     17       1.11       0.34       0.69
     1    15     16       1.11       0.34       0.69
     1    14     15       1.11       0.34       0.69
     1    13     14       1.11       0.34       0.69
     1    12     13       1.11       0.34       0.69
     1    11     12       1.11       0.34       0.69
     1    10     11       1.11       0.34       0.69
     1     9     10       1.11       0.34       0.69
     1     8      9       1.11       0.35       0.69
     1     7      8       1.11       0.35       0.68
     1     6      7       1.11       0.36       0.68
     1     5      6       1.11       0.38       0.66
     1     4      5       1.11       0.42       0.63
     1     3      4       1.11       0.49       0.56
     1     2      3       1.11       0.64       0.42

 Time of computation ->  20251123.104500      in sec:      38700.
 not possible to compute, first iteration

  ** WARNING : Differences in wave height at the boundary
 Relative difference between input and computation >=   0.10
                         Hs[m]      Hs[m]      Hs[-]
     ix    iy  index   (input) (computed) (relative)
  --------------------------------------------------
     1    36     37       1.11       0.77       0.30
     1    35     36       1.11       0.49       0.56
     1    34     35       1.11       0.40       0.64
     1    33     34       1.11       0.36       0.67
     1    32     33       1.11       0.35       0.68
     1    31     32       1.11       0.35       0.69
     1    30     31       1.11       0.34       0.69
     1    29     30       1.11       0.34       0.69
     1    28     29       1.11       0.34       0.69
     1    27     28       1.11       0.34       0.69
     1    26     27       1.11       0.34       0.69
     1    25     26       1.11       0.34       0.69
     1    24     25       1.11       0.34       0.69
     1    23     24       1.11       0.34       0.69
     1    22     23       1.11       0.34       0.69
     1    21     22       1.11       0.34       0.69
     1    20     21       1.11       0.34       0.69
     1    19     20       1.11       0.34       0.69
     1    18     19       1.11       0.34       0.69
     1    17     18       1.11       0.34       0.69
     1    16     17       1.11       0.34       0.69
     1    15     16       1.11       0.34       0.69
     1    14     15       1.11       0.34       0.69
     1    13     14       1.11       0.34       0.69
     1    12     13       1.11       0.34       0.69
     1    11     12       1.11       0.34       0.69
     1    10     11       1.11       0.34       0.69
     1     9     10       1.11       0.34       0.69
     1     8      9       1.11       0.35       0.69
     1     7      8       1.11       0.35       0.68
     1     6      7       1.11       0.36       0.68
     1     5      6       1.11       0.38       0.66
     1     4      5       1.11       0.42       0.62
     1     3      4       1.11       0.49       0.56
     1     2      3       1.11       0.64       0.42

 Time of computation ->  20251123.110000      in sec:      39600.
 not possible to compute, first iteration

  ** WARNING : Differences in wave height at the boundary
 Relative difference between input and computation >=   0.10
                         Hs[m]      Hs[m]      Hs[-]
     ix    iy  index   (input) (computed) (relative)
  --------------------------------------------------
     1    36     37       1.10       0.77       0.31
     1    35     36       1.10       0.49       0.56
     1    34     35       1.10       0.40       0.64
     1    33     34       1.10       0.36       0.67
     1    32     33       1.10       0.35       0.68
     1    31     32       1.10       0.35       0.69
     1    30     31       1.10       0.34       0.69
     1    29     30       1.10       0.34       0.69
     1    28     29       1.10       0.34       0.69
     1    27     28       1.10       0.34       0.69
     1    26     27       1.10       0.34       0.69
     1    25     26       1.10       0.34       0.69
     1    24     25       1.10       0.34       0.69
     1    23     24       1.10       0.34       0.69
     1    22     23       1.10       0.34       0.69
     1    21     22       1.10       0.34       0.69
     1    20     21       1.10       0.34       0.69
     1    19     20       1.10       0.34       0.69
     1    18     19       1.10       0.34       0.69
     1    17     18       1.10       0.34       0.69
     1    16     17       1.10       0.34       0.69
     1    15     16       1.10       0.34       0.69
     1    14     15       1.10       0.34       0.69
     1    13     14       1.10       0.34       0.69
     1    12     13       1.10       0.34       0.69
     1    11     12       1.10       0.34       0.69
     1    10     11       1.10       0.34       0.69
     1     9     10       1.10       0.34       0.69
     1     8      9       1.10       0.35       0.69
     1     7      8       1.10       0.35       0.68
     1     6      7       1.10       0.36       0.67
     1     5      6       1.10       0.38       0.66
     1     4      5       1.10       0.42       0.62
     1     3      4       1.10       0.49       0.56
     1     2      3       1.10       0.64       0.42

 Time of computation ->  20251123.111500      in sec:      40500.
 not possible to compute, first iteration

  ** WARNING : Differences in wave height at the boundary
 Relative difference between input and computation >=   0.10
                         Hs[m]      Hs[m]      Hs[-]
     ix    iy  index   (input) (computed) (relative)
  --------------------------------------------------
     1    36     37       1.10       0.76       0.31
     1    35     36       1.10       0.49       0.56
     1    34     35       1.10       0.40       0.64
     1    33     34       1.10       0.36       0.67
     1    32     33       1.10       0.35       0.68
     1    31     32       1.10       0.34       0.69
     1    30     31       1.10       0.34       0.69
     1    29     30       1.10       0.34       0.69
     1    28     29       1.10       0.34       0.69
     1    27     28       1.10       0.34       0.69
     1    26     27       1.10       0.34       0.69
     1    25     26       1.10       0.34       0.69
     1    24     25       1.10       0.34       0.69
     1    23     24       1.10       0.34       0.69
     1    22     23       1.10       0.34       0.69
     1    21     22       1.10       0.34       0.69
     1    20     21       1.10       0.34       0.69
     1    19     20       1.10       0.34       0.69
     1    18     19       1.10       0.34       0.69
     1    17     18       1.10       0.34       0.69
     1    16     17       1.10       0.34       0.69
     1    15     16       1.10       0.34       0.69
     1    14     15       1.10       0.34       0.69
     1    13     14       1.10       0.34       0.69
     1    12     13       1.10       0.34       0.69
     1    11     12       1.10       0.34       0.69
     1    10     11       1.10       0.34       0.69
     1     9     10       1.10       0.34       0.69
     1     8      9       1.10       0.35       0.69
     1     7      8       1.10       0.35       0.68
     1     6      7       1.10       0.36       0.67
     1     5      6       1.10       0.38       0.66
     1     4      5       1.10       0.42       0.62
     1     3      4       1.10       0.49       0.55
     1     2      3       1.10       0.64       0.42

 Time of computation ->  20251123.113000      in sec:      41400.
 not possible to compute, first iteration

  ** WARNING : Differences in wave height at the boundary
 Relative difference between input and computation >=   0.10
                         Hs[m]      Hs[m]      Hs[-]
     ix    iy  index   (input) (computed) (relative)
  --------------------------------------------------
     1    36     37       1.10       0.76       0.31
     1    35     36       1.10       0.48       0.56
     1    34     35       1.10       0.39       0.64
     1    33     34       1.10       0.36       0.67
     1    32     33       1.10       0.35       0.68
     1    31     32       1.10       0.34       0.69
     1    30     31       1.10       0.34       0.69
     1    29     30       1.10       0.34       0.69
     1    28     29       1.10       0.34       0.69
     1    27     28       1.10       0.34       0.69
     1    26     27       1.10       0.34       0.69
     1    25     26       1.10       0.34       0.69
     1    24     25       1.10       0.34       0.69
     1    23     24       1.10       0.34       0.69
     1    22     23       1.10       0.34       0.69
     1    21     22       1.10       0.34       0.69
     1    20     21       1.10       0.34       0.69
     1    19     20       1.10       0.34       0.69
     1    18     19       1.10       0.34       0.69
     1    17     18       1.10       0.34       0.69
     1    16     17       1.10       0.34       0.69
     1    15     16       1.10       0.34       0.69
     1    14     15       1.10       0.34       0.69
     1    13     14       1.10       0.34       0.69
     1    12     13       1.10       0.34       0.69
     1    11     12       1.10       0.34       0.69
     1    10     11       1.10       0.34       0.69
     1     9     10       1.10       0.34       0.69
     1     8      9       1.10       0.35       0.69
     1     7      8       1.10       0.35       0.68
     1     6      7       1.10       0.36       0.67
     1     5      6       1.10       0.38       0.66
     1     4      5       1.10       0.42       0.62
     1     3      4       1.10       0.49       0.55
     1     2      3       1.10       0.64       0.42

 Time of computation ->  20251123.114500      in sec:      42300.
 not possible to compute, first iteration

  ** WARNING : Differences in wave height at the boundary
 Relative difference between input and computation >=   0.10
                         Hs[m]      Hs[m]      Hs[-]
     ix    iy  index   (input) (computed) (relative)
  --------------------------------------------------
     1    36     37       1.10       0.76       0.31
     1    35     36       1.10       0.48       0.56
     1    34     35       1.10       0.39       0.64
     1    33     34       1.10       0.36       0.67
     1    32     33       1.10       0.35       0.68
     1    31     32       1.10       0.34       0.69
     1    30     31       1.10       0.34       0.69
     1    29     30       1.10       0.34       0.69
     1    28     29       1.10       0.34       0.69
     1    27     28       1.10       0.34       0.69
     1    26     27       1.10       0.34       0.69
     1    25     26       1.10       0.34       0.69
     1    24     25       1.10       0.34       0.69
     1    23     24       1.10       0.34       0.69
     1    22     23       1.10       0.34       0.69
     1    21     22       1.10       0.34       0.69
     1    20     21       1.10       0.34       0.69
     1    19     20       1.10       0.34       0.69
     1    18     19       1.10       0.34       0.69
     1    17     18       1.10       0.34       0.69
     1    16     17       1.10       0.34       0.69
     1    15     16       1.10       0.34       0.69
     1    14     15       1.10       0.34       0.69
     1    13     14       1.10       0.34       0.69
     1    12     13       1.10       0.34       0.69
     1    11     12       1.10       0.34       0.69
     1    10     11       1.10       0.34       0.69
     1     9     10       1.10       0.34       0.69
     1     8      9       1.10       0.34       0.69
     1     7      8       1.10       0.35       0.68
     1     6      7       1.10       0.36       0.67
     1     5      6       1.10       0.38       0.66
     1     4      5       1.10       0.42       0.62
     1     3      4       1.10       0.49       0.55
     1     2      3       1.10       0.64       0.42

 Time of computation ->  20251123.120000      in sec:      43200.
 not possible to compute, first iteration

  ** WARNING : Differences in wave height at the boundary
 Relative difference between input and computation >=   0.10
                         Hs[m]      Hs[m]      Hs[-]
     ix    iy  index   (input) (computed) (relative)
  --------------------------------------------------
     1    36     37       1.09       0.75       0.31
     1    35     36       1.09       0.48       0.56
     1    34     35       1.09       0.39       0.64
     1    33     34       1.09       0.36       0.67
     1    32     33       1.09       0.35       0.68
     1    31     32       1.09       0.34       0.69
     1    30     31       1.09       0.34       0.69
     1    29     30       1.09       0.34       0.69
     1    28     29       1.09       0.34       0.69
     1    27     28       1.09       0.34       0.69
     1    26     27       1.09       0.34       0.69
     1    25     26       1.09       0.34       0.69
     1    24     25       1.09       0.34       0.69
     1    23     24       1.09       0.34       0.69
     1    22     23       1.09       0.34       0.69
     1    21     22       1.09       0.34       0.69
     1    20     21       1.09       0.34       0.69
     1    19     20       1.09       0.34       0.69
     1    18     19       1.09       0.34       0.69
     1    17     18       1.09       0.34       0.69
     1    16     17       1.09       0.34       0.69
     1    15     16       1.09       0.34       0.69
     1    14     15       1.09       0.34       0.69
     1    13     14       1.09       0.34       0.69
     1    12     13       1.09       0.34       0.69
     1    11     12       1.09       0.34       0.69
     1    10     11       1.09       0.34       0.69
     1     9     10       1.09       0.34       0.69
     1     8      9       1.09       0.34       0.69
     1     7      8       1.09       0.35       0.68
     1     6      7       1.09       0.36       0.67
     1     5      6       1.09       0.38       0.66
     1     4      5       1.09       0.41       0.62
     1     3      4       1.09       0.49       0.55
     1     2      3       1.09       0.64       0.41

 Time of computation ->  20251123.121500      in sec:      44100.
 Boundary data type TPAR processed, time:       54000.
 Boundary data type TPAR processed, time:       54000.
 not possible to compute, first iteration

  ** WARNING : Differences in wave height at the boundary
 Relative difference between input and computation >=   0.10
                         Hs[m]      Hs[m]      Hs[-]
     ix    iy  index   (input) (computed) (relative)
  --------------------------------------------------
     1    36     37       1.10       0.75       0.31
     1    35     36       1.10       0.48       0.56
     1    34     35       1.10       0.39       0.64
     1    33     34       1.10       0.36       0.67
     1    32     33       1.10       0.35       0.68
     1    31     32       1.10       0.34       0.69
     1    30     31       1.10       0.34       0.69
     1    29     30       1.10       0.34       0.69
     1    28     29       1.10       0.34       0.69
     1    27     28       1.10       0.34       0.69
     1    26     27       1.10       0.34       0.69
     1    25     26       1.10       0.34       0.69
     1    24     25       1.10       0.34       0.69
     1    23     24       1.10       0.34       0.69
     1    22     23       1.10       0.34       0.69
     1    21     22       1.10       0.34       0.69
     1    20     21       1.10       0.34       0.69
     1    19     20       1.10       0.34       0.69
     1    18     19       1.10       0.34       0.69
     1    17     18       1.10       0.34       0.69
     1    16     17       1.10       0.34       0.69
     1    15     16       1.10       0.34       0.69
     1    14     15       1.10       0.34       0.69
     1    13     14       1.10       0.34       0.69
     1    12     13       1.10       0.34       0.69
     1    11     12       1.10       0.34       0.69
     1    10     11       1.10       0.34       0.69
     1     9     10       1.10       0.34       0.69
     1     8      9       1.10       0.34       0.69
     1     7      8       1.10       0.35       0.68
     1     6      7       1.10       0.36       0.67
     1     5      6       1.10       0.38       0.66
     1     4      5       1.10       0.42       0.62
     1     3      4       1.10       0.49       0.55
     1     2      3       1.10       0.64       0.41

 Time of computation ->  20251123.123000      in sec:      45000.
 not possible to compute, first iteration

  ** WARNING : Differences in wave height at the boundary
 Relative difference between input and computation >=   0.10
                         Hs[m]      Hs[m]      Hs[-]
     ix    iy  index   (input) (computed) (relative)
  --------------------------------------------------
     1    36     37       1.10       0.75       0.31
     1    35     36       1.10       0.48       0.56
     1    34     35       1.10       0.39       0.64
     1    33     34       1.10       0.36       0.67
     1    32     33       1.10       0.35       0.68
     1    31     32       1.10       0.34       0.69
     1    30     31       1.10       0.34       0.69
     1    29     30       1.10       0.34       0.69
     1    28     29       1.10       0.34       0.69
     1    27     28       1.10       0.34       0.69
     1    26     27       1.10       0.34       0.69
     1    25     26       1.10       0.34       0.69
     1    24     25       1.10       0.34       0.69
     1    23     24       1.10       0.34       0.69
     1    22     23       1.10       0.34       0.69
     1    21     22       1.10       0.34       0.69
     1    20     21       1.10       0.34       0.69
     1    19     20       1.10       0.34       0.69
     1    18     19       1.10       0.34       0.69
     1    17     18       1.10       0.34       0.69
     1    16     17       1.10       0.34       0.69
     1    15     16       1.10       0.34       0.69
     1    14     15       1.10       0.34       0.69
     1    13     14       1.10       0.34       0.69
     1    12     13       1.10       0.34       0.69
     1    11     12       1.10       0.34       0.69
     1    10     11       1.10       0.34       0.69
     1     9     10       1.10       0.34       0.69
     1     8      9       1.10       0.35       0.68
     1     7      8       1.10       0.35       0.68
     1     6      7       1.10       0.36       0.67
     1     5      6       1.10       0.38       0.65
     1     4      5       1.10       0.42       0.62
     1     3      4       1.10       0.49       0.55
     1     2      3       1.10       0.64       0.41

 Time of computation ->  20251123.124500      in sec:      45900.
 not possible to compute, first iteration

  ** WARNING : Differences in wave height at the boundary
 Relative difference between input and computation >=   0.10
                         Hs[m]      Hs[m]      Hs[-]
     ix    iy  index   (input) (computed) (relative)
  --------------------------------------------------
     1    36     37       1.10       0.75       0.31
     1    35     36       1.10       0.48       0.56
     1    34     35       1.10       0.39       0.64
     1    33     34       1.10       0.36       0.67
     1    32     33       1.10       0.35       0.68
     1    31     32       1.10       0.34       0.69
     1    30     31       1.10       0.34       0.69
     1    29     30       1.10       0.34       0.69
     1    28     29       1.10       0.34       0.69
     1    27     28       1.10       0.34       0.69
     1    26     27       1.10       0.34       0.69
     1    25     26       1.10       0.34       0.69
     1    24     25       1.10       0.34       0.69
     1    23     24       1.10       0.34       0.69
     1    22     23       1.10       0.34       0.69
     1    21     22       1.10       0.34       0.69
     1    20     21       1.10       0.34       0.69
     1    19     20       1.10       0.34       0.69
     1    18     19       1.10       0.34       0.69
     1    17     18       1.10       0.34       0.69
     1    16     17       1.10       0.34       0.69
     1    15     16       1.10       0.34       0.69
     1    14     15       1.10       0.34       0.69
     1    13     14       1.10       0.34       0.69
     1    12     13       1.10       0.34       0.69
     1    11     12       1.10       0.34       0.69
     1    10     11       1.10       0.34       0.69
     1     9     10       1.10       0.34       0.69
     1     8      9       1.10       0.35       0.68
     1     7      8       1.10       0.35       0.68
     1     6      7       1.10       0.36       0.67
     1     5      6       1.10       0.38       0.65
     1     4      5       1.10       0.42       0.62
     1     3      4       1.10       0.49       0.55
     1     2      3       1.10       0.65       0.41

 Time of computation ->  20251123.130000      in sec:      46800.
 not possible to compute, first iteration

  ** WARNING : Differences in wave height at the boundary
 Relative difference between input and computation >=   0.10
                         Hs[m]      Hs[m]      Hs[-]
     ix    iy  index   (input) (computed) (relative)
  --------------------------------------------------
     1    36     37       1.10       0.75       0.31
     1    35     36       1.10       0.48       0.56
     1    34     35       1.10       0.39       0.64
     1    33     34       1.10       0.36       0.67
     1    32     33       1.10       0.35       0.68
     1    31     32       1.10       0.35       0.69
     1    30     31       1.10       0.34       0.69
     1    29     30       1.10       0.34       0.69
     1    28     29       1.10       0.34       0.69
     1    27     28       1.10       0.34       0.69
     1    26     27       1.10       0.34       0.69
     1    25     26       1.10       0.34       0.69
     1    24     25       1.10       0.34       0.69
     1    23     24       1.10       0.34       0.69
     1    22     23       1.10       0.34       0.69
     1    21     22       1.10       0.34       0.69
     1    20     21       1.10       0.34       0.69
     1    19     20       1.10       0.34       0.69
     1    18     19       1.10       0.34       0.69
     1    17     18       1.10       0.34       0.69
     1    16     17       1.10       0.34       0.69
     1    15     16       1.10       0.34       0.69
     1    14     15       1.10       0.34       0.69
     1    13     14       1.10       0.34       0.69
     1    12     13       1.10       0.34       0.69
     1    11     12       1.10       0.34       0.69
     1    10     11       1.10       0.34       0.69
     1     9     10       1.10       0.35       0.68
     1     8      9       1.10       0.35       0.68
     1     7      8       1.10       0.35       0.68
     1     6      7       1.10       0.36       0.67
     1     5      6       1.10       0.38       0.65
     1     4      5       1.10       0.42       0.62
     1     3      4       1.10       0.50       0.55
     1     2      3       1.10       0.65       0.41

 Time of computation ->  20251123.131500      in sec:      47700.
 not possible to compute, first iteration

  ** WARNING : Differences in wave height at the boundary
 Relative difference between input and computation >=   0.10
                         Hs[m]      Hs[m]      Hs[-]
     ix    iy  index   (input) (computed) (relative)
  --------------------------------------------------
     1    36     37       1.10       0.75       0.32
     1    35     36       1.10       0.48       0.56
     1    34     35       1.10       0.39       0.64
     1    33     34       1.10       0.36       0.67
     1    32     33       1.10       0.35       0.68
     1    31     32       1.10       0.35       0.68
     1    30     31       1.10       0.34       0.69
     1    29     30       1.10       0.34       0.69
     1    28     29       1.10       0.34       0.69
     1    27     28       1.10       0.34       0.69
     1    26     27       1.10       0.34       0.69
     1    25     26       1.10       0.34       0.69
     1    24     25       1.10       0.34       0.69
     1    23     24       1.10       0.34       0.69
     1    22     23       1.10       0.34       0.69
     1    21     22       1.10       0.34       0.69
     1    20     21       1.10       0.34       0.69
     1    19     20       1.10       0.34       0.69
     1    18     19       1.10       0.34       0.69
     1    17     18       1.10       0.34       0.69
     1    16     17       1.10       0.34       0.69
     1    15     16       1.10       0.34       0.69
     1    14     15       1.10       0.34       0.69
     1    13     14       1.10       0.34       0.69
     1    12     13       1.10       0.34       0.69
     1    11     12       1.10       0.34       0.69
     1    10     11       1.10       0.35       0.69
     1     9     10       1.10       0.35       0.68
     1     8      9       1.10       0.35       0.68
     1     7      8       1.10       0.35       0.68
     1     6      7       1.10       0.36       0.67
     1     5      6       1.10       0.38       0.65
     1     4      5       1.10       0.42       0.62
     1     3      4       1.10       0.50       0.55
     1     2      3       1.10       0.65       0.41

 Time of computation ->  20251123.133000      in sec:      48600.
 not possible to compute, first iteration

  ** WARNING : Differences in wave height at the boundary
 Relative difference between input and computation >=   0.10
                         Hs[m]      Hs[m]      Hs[-]
     ix    iy  index   (input) (computed) (relative)
  --------------------------------------------------
     1    36     37       1.10       0.75       0.32
     1    35     36       1.10       0.48       0.56
     1    34     35       1.10       0.39       0.64
     1    33     34       1.10       0.36       0.67
     1    32     33       1.10       0.35       0.68
     1    31     32       1.10       0.35       0.68
     1    30     31       1.10       0.34       0.69
     1    29     30       1.10       0.34       0.69
     1    28     29       1.10       0.34       0.69
     1    27     28       1.10       0.34       0.69
     1    26     27       1.10       0.34       0.69
     1    25     26       1.10       0.34       0.69
     1    24     25       1.10       0.34       0.69
     1    23     24       1.10       0.34       0.69
     1    22     23       1.10       0.34       0.69
     1    21     22       1.10       0.34       0.69
     1    20     21       1.10       0.34       0.69
     1    19     20       1.10       0.34       0.69
     1    18     19       1.10       0.34       0.69
     1    17     18       1.10       0.34       0.69
     1    16     17       1.10       0.34       0.69
     1    15     16       1.10       0.34       0.69
     1    14     15       1.10       0.34       0.69
     1    13     14       1.10       0.34       0.69
     1    12     13       1.10       0.35       0.68
     1    11     12       1.10       0.35       0.68
     1    10     11       1.10       0.35       0.68
     1     9     10       1.10       0.35       0.68
     1     8      9       1.10       0.35       0.68
     1     7      8       1.10       0.36       0.68
     1     6      7       1.10       0.37       0.67
     1     5      6       1.10       0.38       0.65
     1     4      5       1.10       0.42       0.61
     1     3      4       1.10       0.50       0.54
     1     2      3       1.10       0.65       0.41

 Time of computation ->  20251123.134500      in sec:      49500.
 not possible to compute, first iteration

  ** WARNING : Differences in wave height at the boundary
 Relative difference between input and computation >=   0.10
                         Hs[m]      Hs[m]      Hs[-]
     ix    iy  index   (input) (computed) (relative)
  --------------------------------------------------
     1    36     37       1.10       0.75       0.32
     1    35     36       1.10       0.48       0.56
     1    34     35       1.10       0.39       0.64
     1    33     34       1.10       0.36       0.67
     1    32     33       1.10       0.35       0.68
     1    31     32       1.10       0.35       0.68
     1    30     31       1.10       0.34       0.69
     1    29     30       1.10       0.34       0.69
     1    28     29       1.10       0.34       0.69
     1    27     28       1.10       0.34       0.69
     1    26     27       1.10       0.34       0.69
     1    25     26       1.10       0.34       0.69
     1    24     25       1.10       0.34       0.69
     1    23     24       1.10       0.34       0.69
     1    22     23       1.10       0.34       0.69
     1    21     22       1.10       0.34       0.69
     1    20     21       1.10       0.34       0.69
     1    19     20       1.10       0.34       0.69
     1    18     19       1.10       0.34       0.69
     1    17     18       1.10       0.34       0.69
     1    16     17       1.10       0.35       0.69
     1    15     16       1.10       0.35       0.68
     1    14     15       1.10       0.35       0.68
     1    13     14       1.10       0.35       0.68
     1    12     13       1.10       0.35       0.68
     1    11     12       1.10       0.35       0.68
     1    10     11       1.10       0.35       0.68
     1     9     10       1.10       0.35       0.68
     1     8      9       1.10       0.35       0.68
     1     7      8       1.10       0.36       0.67
     1     6      7       1.10       0.37       0.67
     1     5      6       1.10       0.39       0.65
     1     4      5       1.10       0.42       0.61
     1     3      4       1.10       0.50       0.54
     1     2      3       1.10       0.65       0.41

 Time of computation ->  20251123.140000      in sec:      50400.
 not possible to compute, first iteration

  ** WARNING : Differences in wave height at the boundary
 Relative difference between input and computation >=   0.10
                         Hs[m]      Hs[m]      Hs[-]
     ix    iy  index   (input) (computed) (relative)
  --------------------------------------------------
     1    36     37       1.10       0.75       0.32
     1    35     36       1.10       0.48       0.56
     1    34     35       1.10       0.39       0.64
     1    33     34       1.10       0.36       0.67
     1    32     33       1.10       0.35       0.68
     1    31     32       1.10       0.35       0.68
     1    30     31       1.10       0.35       0.69
     1    29     30       1.10       0.34       0.69
     1    28     29       1.10       0.34       0.69
     1    27     28       1.10       0.34       0.69
     1    26     27       1.10       0.34       0.69
     1    25     26       1.10       0.35       0.69
     1    24     25       1.10       0.34       0.69
     1    23     24       1.10       0.34       0.69
     1    22     23       1.10       0.34       0.69
     1    21     22       1.10       0.34       0.69
     1    20     21       1.10       0.34       0.69
     1    19     20       1.10       0.34       0.69
     1    18     19       1.10       0.34       0.69
     1    17     18       1.10       0.35       0.68
     1    16     17       1.10       0.35       0.68
     1    15     16       1.10       0.35       0.68
     1    14     15       1.10       0.35       0.68
     1    13     14       1.10       0.35       0.68
     1    12     13       1.10       0.35       0.68
     1    11     12       1.10       0.35       0.68
     1    10     11       1.10       0.35       0.68
     1     9     10       1.10       0.35       0.68
     1     8      9       1.10       0.35       0.68
     1     7      8       1.10       0.36       0.67
     1     6      7       1.10       0.37       0.67
     1     5      6       1.10       0.39       0.65
     1     4      5       1.10       0.42       0.61
     1     3      4       1.10       0.50       0.54
     1     2      3       1.10       0.65       0.41

 Time of computation ->  20251123.141500      in sec:      51300.
 not possible to compute, first iteration

  ** WARNING : Differences in wave height at the boundary
 Relative difference between input and computation >=   0.10
                         Hs[m]      Hs[m]      Hs[-]
     ix    iy  index   (input) (computed) (relative)
  --------------------------------------------------
     1    36     37       1.10       0.75       0.32
     1    35     36       1.10       0.48       0.56
     1    34     35       1.10       0.39       0.64
     1    33     34       1.10       0.36       0.67
     1    32     33       1.10       0.35       0.68
     1    31     32       1.10       0.35       0.68
     1    30     31       1.10       0.35       0.68
     1    29     30       1.10       0.34       0.69
     1    28     29       1.10       0.34       0.69
     1    27     28       1.10       0.34       0.69
     1    26     27       1.10       0.35       0.68
     1    25     26       1.10       0.35       0.68
     1    24     25       1.10       0.35       0.68
     1    23     24       1.10       0.35       0.69
     1    22     23       1.10       0.35       0.69
     1    21     22       1.10       0.34       0.69
     1    20     21       1.10       0.35       0.69
     1    19     20       1.10       0.35       0.68
     1    18     19       1.10       0.35       0.68
     1    17     18       1.10       0.35       0.68
     1    16     17       1.10       0.35       0.68
     1    15     16       1.10       0.35       0.68
     1    14     15       1.10       0.35       0.68
     1    13     14       1.10       0.35       0.68
     1    12     13       1.10       0.35       0.68
     1    11     12       1.10       0.35       0.68
     1    10     11       1.10       0.35       0.68
     1     9     10       1.10       0.35       0.68
     1     8      9       1.10       0.35       0.68
     1     7      8       1.10       0.36       0.67
     1     6      7       1.10       0.37       0.66
     1     5      6       1.10       0.39       0.65
     1     4      5       1.10       0.43       0.61
     1     3      4       1.10       0.50       0.54
     1     2      3       1.10       0.65       0.40

 Time of computation ->  20251123.143000      in sec:      52200.
 not possible to compute, first iteration

  ** WARNING : Differences in wave height at the boundary
 Relative difference between input and computation >=   0.10
                         Hs[m]      Hs[m]      Hs[-]
     ix    iy  index   (input) (computed) (relative)
  --------------------------------------------------
     1    36     37       1.10       0.74       0.32
     1    35     36       1.10       0.48       0.56
     1    34     35       1.10       0.39       0.64
     1    33     34       1.10       0.36       0.67
     1    32     33       1.10       0.35       0.68
     1    31     32       1.10       0.35       0.68
     1    30     31       1.10       0.35       0.68
     1    29     30       1.10       0.35       0.69
     1    28     29       1.10       0.34       0.69
     1    27     28       1.10       0.35       0.68
     1    26     27       1.10       0.35       0.68
     1    25     26       1.10       0.35       0.68
     1    24     25       1.10       0.35       0.68
     1    23     24       1.10       0.35       0.68
     1    22     23       1.10       0.35       0.68
     1    21     22       1.10       0.35       0.68
     1    20     21       1.10       0.35       0.68
     1    19     20       1.10       0.35       0.68
     1    18     19       1.10       0.35       0.68
     1    17     18       1.10       0.35       0.68
     1    16     17       1.10       0.35       0.68
     1    15     16       1.10       0.35       0.68
     1    14     15       1.10       0.35       0.68
     1    13     14       1.10       0.35       0.68
     1    12     13       1.10       0.35       0.68
     1    11     12       1.10       0.35       0.68
     1    10     11       1.10       0.35       0.68
     1     9     10       1.10       0.35       0.68
     1     8      9       1.10       0.35       0.68
     1     7      8       1.10       0.36       0.67
     1     6      7       1.10       0.37       0.66
     1     5      6       1.10       0.39       0.65
     1     4      5       1.10       0.43       0.61
     1     3      4       1.10       0.50       0.54
     1     2      3       1.10       0.65       0.40

 Time of computation ->  20251123.144500      in sec:      53100.
 not possible to compute, first iteration

  ** WARNING : Differences in wave height at the boundary
 Relative difference between input and computation >=   0.10
                         Hs[m]      Hs[m]      Hs[-]
     ix    iy  index   (input) (computed) (relative)
  --------------------------------------------------
     1    36     37       1.09       0.74       0.32
     1    35     36       1.09       0.48       0.57
     1    34     35       1.09       0.39       0.64
     1    33     34       1.09       0.36       0.67
     1    32     33       1.09       0.35       0.68
     1    31     32       1.09       0.35       0.68
     1    30     31       1.09       0.35       0.68
     1    29     30       1.09       0.34       0.69
     1    28     29       1.09       0.34       0.69
     1    27     28       1.09       0.35       0.68
     1    26     27       1.09       0.35       0.68
     1    25     26       1.09       0.35       0.68
     1    24     25       1.09       0.35       0.68
     1    23     24       1.09       0.35       0.68
     1    22     23       1.09       0.35       0.68
     1    21     22       1.09       0.35       0.68
     1    20     21       1.09       0.35       0.68
     1    19     20       1.09       0.35       0.68
     1    18     19       1.09       0.35       0.68
     1    17     18       1.09       0.35       0.68
     1    16     17       1.09       0.35       0.68
     1    15     16       1.09       0.35       0.68
     1    14     15       1.09       0.35       0.68
     1    13     14       1.09       0.35       0.68
     1    12     13       1.09       0.35       0.68
     1    11     12       1.09       0.35       0.68
     1    10     11       1.09       0.35       0.68
     1     9     10       1.09       0.35       0.68
     1     8      9       1.09       0.35       0.68
     1     7      8       1.09       0.36       0.67
     1     6      7       1.09       0.37       0.66
     1     5      6       1.09       0.39       0.65
     1     4      5       1.09       0.43       0.61
     1     3      4       1.09       0.50       0.54
     1     2      3       1.09       0.65       0.40

 Time of computation ->  20251123.150000      in sec:      54000.
 not possible to compute, first iteration

  ** WARNING : Differences in wave height at the boundary
 Relative difference between input and computation >=   0.10
                         Hs[m]      Hs[m]      Hs[-]
     ix    iy  index   (input) (computed) (relative)
  --------------------------------------------------
     1    36     37       1.09       0.74       0.32
     1    35     36       1.09       0.47       0.57
     1    34     35       1.09       0.39       0.64
     1    33     34       1.09       0.36       0.67
     1    32     33       1.09       0.35       0.68
     1    31     32       1.09       0.35       0.68
     1    30     31       1.09       0.34       0.68
     1    29     30       1.09       0.34       0.69
     1    28     29       1.09       0.34       0.69
     1    27     28       1.09       0.34       0.69
     1    26     27       1.09       0.34       0.68
     1    25     26       1.09       0.34       0.68
     1    24     25       1.09       0.34       0.68
     1    23     24       1.09       0.34       0.68
     1    22     23       1.09       0.34       0.69
     1    21     22       1.09       0.34       0.69
     1    20     21       1.09       0.34       0.69
     1    19     20       1.09       0.34       0.68
     1    18     19       1.09       0.34       0.68
     1    17     18       1.09       0.35       0.68
     1    16     17       1.09       0.35       0.68
     1    15     16       1.09       0.35       0.68
     1    14     15       1.09       0.35       0.68
     1    13     14       1.09       0.35       0.68
     1    12     13       1.09       0.35       0.68
     1    11     12       1.09       0.35       0.68
     1    10     11       1.09       0.35       0.68
     1     9     10       1.09       0.35       0.68
     1     8      9       1.09       0.35       0.68
     1     7      8       1.09       0.36       0.67
     1     6      7       1.09       0.37       0.66
     1     5      6       1.09       0.39       0.65
     1     4      5       1.09       0.43       0.61
     1     3      4       1.09       0.50       0.54
     1     2      3       1.09       0.66       0.40

 Time of computation ->  20251123.151500      in sec:      54900.
 Boundary data type TPAR processed, time:       64800.
 Boundary data type TPAR processed, time:       64800.
 not possible to compute, first iteration

  ** WARNING : Differences in wave height at the boundary
 Relative difference between input and computation >=   0.10
                         Hs[m]      Hs[m]      Hs[-]
     ix    iy  index   (input) (computed) (relative)
  --------------------------------------------------
     1    36     37       1.10       0.74       0.32
     1    35     36       1.10       0.47       0.57
     1    34     35       1.10       0.39       0.64
     1    33     34       1.10       0.36       0.67
     1    32     33       1.10       0.35       0.68
     1    31     32       1.10       0.35       0.68
     1    30     31       1.10       0.35       0.68
     1    29     30       1.10       0.35       0.69
     1    28     29       1.10       0.35       0.69
     1    27     28       1.10       0.35       0.68
     1    26     27       1.10       0.35       0.68
     1    25     26       1.10       0.35       0.68
     1    24     25       1.10       0.35       0.68
     1    23     24       1.10       0.35       0.68
     1    22     23       1.10       0.35       0.68
     1    21     22       1.10       0.35       0.68
     1    20     21       1.10       0.35       0.68
     1    19     20       1.10       0.35       0.68
     1    18     19       1.10       0.35       0.68
     1    17     18       1.10       0.35       0.68
     1    16     17       1.10       0.35       0.68
     1    15     16       1.10       0.35       0.68
     1    14     15       1.10       0.35       0.68
     1    13     14       1.10       0.35       0.68
     1    12     13       1.10       0.35       0.68
     1    11     12       1.10       0.35       0.68
     1    10     11       1.10       0.35       0.68
     1     9     10       1.10       0.35       0.68
     1     8      9       1.10       0.35       0.68
     1     7      8       1.10       0.36       0.67
     1     6      7       1.10       0.37       0.66
     1     5      6       1.10       0.39       0.65
     1     4      5       1.10       0.43       0.61
     1     3      4       1.10       0.51       0.54
     1     2      3       1.10       0.66       0.40

 Time of computation ->  20251123.153000      in sec:      55800.
 not possible to compute, first iteration

  ** WARNING : Differences in wave height at the boundary
 Relative difference between input and computation >=   0.10
                         Hs[m]      Hs[m]      Hs[-]
     ix    iy  index   (input) (computed) (relative)
  --------------------------------------------------
     1    36     37       1.10       0.74       0.33
     1    35     36       1.10       0.47       0.57
     1    34     35       1.10       0.39       0.64
     1    33     34       1.10       0.36       0.67
     1    32     33       1.10       0.35       0.68
     1    31     32       1.10       0.35       0.68
     1    30     31       1.10       0.35       0.68
     1    29     30       1.10       0.35       0.68
     1    28     29       1.10       0.35       0.68
     1    27     28       1.10       0.35       0.68
     1    26     27       1.10       0.35       0.68
     1    25     26       1.10       0.35       0.68
     1    24     25       1.10       0.35       0.68
     1    23     24       1.10       0.35       0.68
     1    22     23       1.10       0.35       0.68
     1    21     22       1.10       0.35       0.68
     1    20     21       1.10       0.35       0.68
     1    19     20       1.10       0.35       0.68
     1    18     19       1.10       0.35       0.68
     1    17     18       1.10       0.35       0.68
     1    16     17       1.10       0.35       0.68
     1    15     16       1.10       0.35       0.68
     1    14     15       1.10       0.35       0.68
     1    13     14       1.10       0.35       0.68
     1    12     13       1.10       0.35       0.68
     1    11     12       1.10       0.35       0.68
     1    10     11       1.10       0.35       0.68
     1     9     10       1.10       0.35       0.68
     1     8      9       1.10       0.35       0.68
     1     7      8       1.10       0.36       0.67
     1     6      7       1.10       0.37       0.66
     1     5      6       1.10       0.39       0.64
     1     4      5       1.10       0.43       0.61
     1     3      4       1.10       0.51       0.54
     1     2      3       1.10       0.66       0.40

 Time of computation ->  20251123.154500      in sec:      56700.
 not possible to compute, first iteration

  ** WARNING : Differences in wave height at the boundary
 Relative difference between input and computation >=   0.10
                         Hs[m]      Hs[m]      Hs[-]
     ix    iy  index   (input) (computed) (relative)
  --------------------------------------------------
     1    36     37       1.10       0.74       0.33
     1    35     36       1.10       0.48       0.57
     1    34     35       1.10       0.39       0.64
     1    33     34       1.10       0.36       0.67
     1    32     33       1.10       0.35       0.68
     1    31     32       1.10       0.35       0.68
     1    30     31       1.10       0.35       0.68
     1    29     30       1.10       0.35       0.68
     1    28     29       1.10       0.35       0.68
     1    27     28       1.10       0.35       0.68
     1    26     27       1.10       0.35       0.68
     1    25     26       1.10       0.35       0.68
     1    24     25       1.10       0.35       0.68
     1    23     24       1.10       0.35       0.68
     1    22     23       1.10       0.35       0.68
     1    21     22       1.10       0.35       0.68
     1    20     21       1.10       0.35       0.68
     1    19     20       1.10       0.35       0.68
     1    18     19       1.10       0.35       0.68
     1    17     18       1.10       0.35       0.68
     1    16     17       1.10       0.35       0.68
     1    15     16       1.10       0.35       0.68
     1    14     15       1.10       0.35       0.68
     1    13     14       1.10       0.35       0.68
     1    12     13       1.10       0.35       0.68
     1    11     12       1.10       0.35       0.68
     1    10     11       1.10       0.35       0.68
     1     9     10       1.10       0.35       0.68
     1     8      9       1.10       0.36       0.68
     1     7      8       1.10       0.36       0.67
     1     6      7       1.10       0.37       0.66
     1     5      6       1.10       0.39       0.64
     1     4      5       1.10       0.43       0.61
     1     3      4       1.10       0.51       0.54
     1     2      3       1.10       0.66       0.40

 Time of computation ->  20251123.160000      in sec:      57600.
 not possible to compute, first iteration

  ** WARNING : Differences in wave height at the boundary
 Relative difference between input and computation >=   0.10
                         Hs[m]      Hs[m]      Hs[-]
     ix    iy  index   (input) (computed) (relative)
  --------------------------------------------------
     1    36     37       1.10       0.74       0.33
     1    35     36       1.10       0.48       0.57
     1    34     35       1.10       0.39       0.64
     1    33     34       1.10       0.37       0.67
     1    32     33       1.10       0.35       0.68
     1    31     32       1.10       0.35       0.68
     1    30     31       1.10       0.35       0.68
     1    29     30       1.10       0.35       0.68
     1    28     29       1.10       0.35       0.68
     1    27     28       1.10       0.35       0.68
     1    26     27       1.10       0.35       0.68
     1    25     26       1.10       0.35       0.68
     1    24     25       1.10       0.35       0.68
     1    23     24       1.10       0.35       0.68
     1    22     23       1.10       0.35       0.68
     1    21     22       1.10       0.35       0.68
     1    20     21       1.10       0.35       0.68
     1    19     20       1.10       0.35       0.68
     1    18     19       1.10       0.35       0.68
     1    17     18       1.10       0.35       0.68
     1    16     17       1.10       0.35       0.68
     1    15     16       1.10       0.35       0.68
     1    14     15       1.10       0.35       0.68
     1    13     14       1.10       0.35       0.68
     1    12     13       1.10       0.35       0.68
     1    11     12       1.10       0.35       0.68
     1    10     11       1.10       0.35       0.68
     1     9     10       1.10       0.35       0.68
     1     8      9       1.10       0.36       0.68
     1     7      8       1.10       0.36       0.67
     1     6      7       1.10       0.37       0.66
     1     5      6       1.10       0.39       0.64
     1     4      5       1.10       0.43       0.61
     1     3      4       1.10       0.51       0.54
     1     2      3       1.10       0.66       0.40

 Time of computation ->  20251123.161500      in sec:      58500.
 not possible to compute, first iteration

  ** WARNING : Differences in wave height at the boundary
 Relative difference between input and computation >=   0.10
                         Hs[m]      Hs[m]      Hs[-]
     ix    iy  index   (input) (computed) (relative)
  --------------------------------------------------
     1    36     37       1.10       0.74       0.33
     1    35     36       1.10       0.48       0.57
     1    34     35       1.10       0.39       0.64
     1    33     34       1.10       0.37       0.67
     1    32     33       1.10       0.36       0.68
     1    31     32       1.10       0.35       0.68
     1    30     31       1.10       0.35       0.68
     1    29     30       1.10       0.35       0.68
     1    28     29       1.10       0.35       0.68
     1    27     28       1.10       0.35       0.68
     1    26     27       1.10       0.35       0.68
     1    25     26       1.10       0.35       0.68
     1    24     25       1.10       0.35       0.68
     1    23     24       1.10       0.35       0.68
     1    22     23       1.10       0.35       0.68
     1    21     22       1.10       0.35       0.68
     1    20     21       1.10       0.35       0.68
     1    19     20       1.10       0.35       0.68
     1    18     19       1.10       0.35       0.68
     1    17     18       1.10       0.35       0.68
     1    16     17       1.10       0.35       0.68
     1    15     16       1.10       0.35       0.68
     1    14     15       1.10       0.35       0.68
     1    13     14       1.10       0.35       0.68
     1    12     13       1.10       0.35       0.68
     1    11     12       1.10       0.35       0.68
     1    10     11       1.10       0.35       0.68
     1     9     10       1.10       0.35       0.68
     1     8      9       1.10       0.36       0.68
     1     7      8       1.10       0.36       0.67
     1     6      7       1.10       0.37       0.66
     1     5      6       1.10       0.39       0.64
     1     4      5       1.10       0.43       0.61
     1     3      4       1.10       0.51       0.54
     1     2      3       1.10       0.66       0.40

 Time of computation ->  20251123.163000      in sec:      59400.
 not possible to compute, first iteration

  ** WARNING : Differences in wave height at the boundary
 Relative difference between input and computation >=   0.10
                         Hs[m]      Hs[m]      Hs[-]
     ix    iy  index   (input) (computed) (relative)
  --------------------------------------------------
     1    36     37       1.10       0.74       0.33
     1    35     36       1.10       0.48       0.57
     1    34     35       1.10       0.40       0.64
     1    33     34       1.10       0.37       0.67
     1    32     33       1.10       0.36       0.68
     1    31     32       1.10       0.35       0.68
     1    30     31       1.10       0.35       0.68
     1    29     30       1.10       0.35       0.68
     1    28     29       1.10       0.35       0.68
     1    27     28       1.10       0.35       0.68
     1    26     27       1.10       0.35       0.68
     1    25     26       1.10       0.35       0.68
     1    24     25       1.10       0.35       0.68
     1    23     24       1.10       0.35       0.68
     1    22     23       1.10       0.35       0.68
     1    21     22       1.10       0.35       0.68
     1    20     21       1.10       0.35       0.68
     1    19     20       1.10       0.35       0.68
     1    18     19       1.10       0.35       0.68
     1    17     18       1.10       0.35       0.68
     1    16     17       1.10       0.35       0.68
     1    15     16       1.10       0.35       0.68
     1    14     15       1.10       0.35       0.68
     1    13     14       1.10       0.35       0.68
     1    12     13       1.10       0.35       0.68
     1    11     12       1.10       0.35       0.68
     1    10     11       1.10       0.35       0.68
     1     9     10       1.10       0.36       0.68
     1     8      9       1.10       0.36       0.68
     1     7      8       1.10       0.36       0.67
     1     6      7       1.10       0.37       0.66
     1     5      6       1.10       0.39       0.64
     1     4      5       1.10       0.43       0.61
     1     3      4       1.10       0.51       0.54
     1     2      3       1.10       0.67       0.40

 Time of computation ->  20251123.164500      in sec:      60300.
 not possible to compute, first iteration

  ** WARNING : Differences in wave height at the boundary
 Relative difference between input and computation >=   0.10
                         Hs[m]      Hs[m]      Hs[-]
     ix    iy  index   (input) (computed) (relative)
  --------------------------------------------------
     1    36     37       1.11       0.74       0.33
     1    35     36       1.11       0.48       0.57
     1    34     35       1.11       0.40       0.64
     1    33     34       1.11       0.37       0.67
     1    32     33       1.11       0.36       0.68
     1    31     32       1.11       0.35       0.68
     1    30     31       1.11       0.35       0.68
     1    29     30       1.11       0.35       0.68
     1    28     29       1.11       0.35       0.68
     1    27     28       1.11       0.35       0.68
     1    26     27       1.11       0.35       0.68
     1    25     26       1.11       0.35       0.68
     1    24     25       1.11       0.35       0.68
     1    23     24       1.11       0.35       0.68
     1    22     23       1.11       0.35       0.68
     1    21     22       1.11       0.35       0.68
     1    20     21       1.11       0.35       0.68
     1    19     20       1.11       0.35       0.68
     1    18     19       1.11       0.35       0.68
     1    17     18       1.11       0.35       0.68
     1    16     17       1.11       0.35       0.68
     1    15     16       1.11       0.35       0.68
     1    14     15       1.11       0.35       0.68
     1    13     14       1.11       0.35       0.68
     1    12     13       1.11       0.35       0.68
     1    11     12       1.11       0.35       0.68
     1    10     11       1.11       0.35       0.68
     1     9     10       1.11       0.36       0.68
     1     8      9       1.11       0.36       0.68
     1     7      8       1.11       0.37       0.67
     1     6      7       1.11       0.38       0.66
     1     5      6       1.11       0.40       0.64
     1     4      5       1.11       0.44       0.61
     1     3      4       1.11       0.51       0.54
     1     2      3       1.11       0.67       0.40

 Time of computation ->  20251123.170000      in sec:      61200.
 not possible to compute, first iteration

  ** WARNING : Differences in wave height at the boundary
 Relative difference between input and computation >=   0.10
                         Hs[m]      Hs[m]      Hs[-]
     ix    iy  index   (input) (computed) (relative)
  --------------------------------------------------
     1    36     37       1.11       0.74       0.33
     1    35     36       1.11       0.48       0.57
     1    34     35       1.11       0.40       0.64
     1    33     34       1.11       0.37       0.67
     1    32     33       1.11       0.36       0.68
     1    31     32       1.11       0.35       0.68
     1    30     31       1.11       0.35       0.68
     1    29     30       1.11       0.35       0.68
     1    28     29       1.11       0.35       0.68
     1    27     28       1.11       0.35       0.68
     1    26     27       1.11       0.35       0.68
     1    25     26       1.11       0.35       0.68
     1    24     25       1.11       0.35       0.68
     1    23     24       1.11       0.35       0.68
     1    22     23       1.11       0.35       0.68
     1    21     22       1.11       0.35       0.68
     1    20     21       1.11       0.35       0.68
     1    19     20       1.11       0.35       0.68
     1    18     19       1.11       0.35       0.68
     1    17     18       1.11       0.35       0.68
     1    16     17       1.11       0.35       0.68
     1    15     16       1.11       0.35       0.68
     1    14     15       1.11       0.35       0.68
     1    13     14       1.11       0.35       0.68
     1    12     13       1.11       0.35       0.68
     1    11     12       1.11       0.35       0.68
     1    10     11       1.11       0.36       0.68
     1     9     10       1.11       0.36       0.68
     1     8      9       1.11       0.36       0.68
     1     7      8       1.11       0.37       0.67
     1     6      7       1.11       0.38       0.66
     1     5      6       1.11       0.40       0.64
     1     4      5       1.11       0.44       0.61
     1     3      4       1.11       0.52       0.53
     1     2      3       1.11       0.67       0.40

 Time of computation ->  20251123.171500      in sec:      62100.
 not possible to compute, first iteration

  ** WARNING : Differences in wave height at the boundary
 Relative difference between input and computation >=   0.10
                         Hs[m]      Hs[m]      Hs[-]
     ix    iy  index   (input) (computed) (relative)
  --------------------------------------------------
     1    36     37       1.11       0.74       0.33
     1    35     36       1.11       0.48       0.57
     1    34     35       1.11       0.40       0.64
     1    33     34       1.11       0.37       0.67
     1    32     33       1.11       0.36       0.68
     1    31     32       1.11       0.35       0.68
     1    30     31       1.11       0.35       0.68
     1    29     30       1.11       0.35       0.68
     1    28     29       1.11       0.35       0.68
     1    27     28       1.11       0.35       0.68
     1    26     27       1.11       0.35       0.68
     1    25     26       1.11       0.35       0.68
     1    24     25       1.11       0.35       0.68
     1    23     24       1.11       0.35       0.68
     1    22     23       1.11       0.35       0.68
     1    21     22       1.11       0.35       0.68
     1    20     21       1.11       0.35       0.68
     1    19     20       1.11       0.35       0.68
     1    18     19       1.11       0.35       0.68
     1    17     18       1.11       0.35       0.68
     1    16     17       1.11       0.35       0.68
     1    15     16       1.11       0.35       0.68
     1    14     15       1.11       0.35       0.68
     1    13     14       1.11       0.35       0.68
     1    12     13       1.11       0.35       0.68
     1    11     12       1.11       0.36       0.68
     1    10     11       1.11       0.36       0.68
     1     9     10       1.11       0.36       0.68
     1     8      9       1.11       0.36       0.68
     1     7      8       1.11       0.37       0.67
     1     6      7       1.11       0.38       0.66
     1     5      6       1.11       0.40       0.64
     1     4      5       1.11       0.44       0.61
     1     3      4       1.11       0.52       0.53
     1     2      3       1.11       0.67       0.40

 Time of computation ->  20251123.173000      in sec:      63000.
 not possible to compute, first iteration

  ** WARNING : Differences in wave height at the boundary
 Relative difference between input and computation >=   0.10
                         Hs[m]      Hs[m]      Hs[-]
     ix    iy  index   (input) (computed) (relative)
  --------------------------------------------------
     1    36     37       1.11       0.75       0.33
[...]
     1    30     31       1.34       0.44       0.67
     1    29     30       1.34       0.43       0.68
     1    28     29       1.34       0.43       0.68
     1    27     28       1.34       0.42       0.68
     1    26     27       1.34       0.42       0.69
     1    25     26       1.34       0.42       0.69
     1    24     25       1.34       0.42       0.69
     1    23     24       1.34       0.42       0.69
     1    22     23       1.34       0.41       0.69
     1    21     22       1.34       0.41       0.69
     1    20     21       1.34       0.41       0.69
     1    19     20       1.34       0.41       0.69
     1    18     19       1.34       0.41       0.69
     1    17     18       1.34       0.41       0.69
     1    16     17       1.34       0.41       0.69
     1    15     16       1.34       0.41       0.69
     1    14     15       1.34       0.41       0.69
     1    13     14       1.34       0.41       0.69
     1    12     13       1.34       0.41       0.70
     1    11     12       1.34       0.40       0.70
     1    10     11       1.34       0.40       0.70
     1     9     10       1.34       0.40       0.70
     1     8      9       1.34       0.40       0.70
     1     7      8       1.34       0.40       0.70
     1     6      7       1.34       0.40       0.70
     1     5      6       1.34       0.40       0.70
     1     4      5       1.34       0.42       0.68
     1     3      4       1.34       0.47       0.65
     1     2      3       1.34       0.59       0.56
     1     1      2       1.34       1.17       0.12

 Time of computation ->  20251130.071500      in sec:     630900.
 not possible to compute, first iteration

  ** WARNING : Differences in wave height at the boundary
 Relative difference between input and computation >=   0.10
                         Hs[m]      Hs[m]      Hs[-]
     ix    iy  index   (input) (computed) (relative)
  --------------------------------------------------
     1    36     37       1.33       1.15       0.14
     1    35     36       1.33       0.76       0.43
     1    34     35       1.33       0.59       0.55
     1    33     34       1.33       0.51       0.61
     1    32     33       1.33       0.47       0.64
     1    31     32       1.33       0.45       0.66
     1    30     31       1.33       0.44       0.67
     1    29     30       1.33       0.43       0.68
     1    28     29       1.33       0.42       0.68
     1    27     28       1.33       0.42       0.68
     1    26     27       1.33       0.42       0.69
     1    25     26       1.33       0.42       0.69
     1    24     25       1.33       0.41       0.69
     1    23     24       1.33       0.41       0.69
     1    22     23       1.33       0.41       0.69
     1    21     22       1.33       0.41       0.69
     1    20     21       1.33       0.41       0.69
     1    19     20       1.33       0.41       0.69
     1    18     19       1.33       0.41       0.69
     1    17     18       1.33       0.41       0.69
     1    16     17       1.33       0.41       0.69
     1    15     16       1.33       0.41       0.69
     1    14     15       1.33       0.41       0.69
     1    13     14       1.33       0.41       0.70
     1    12     13       1.33       0.40       0.70
     1    11     12       1.33       0.40       0.70
     1    10     11       1.33       0.40       0.70
     1     9     10       1.33       0.40       0.70
     1     8      9       1.33       0.40       0.70
     1     7      8       1.33       0.40       0.70
     1     6      7       1.33       0.40       0.70
     1     5      6       1.33       0.40       0.70
     1     4      5       1.33       0.42       0.68
     1     3      4       1.33       0.47       0.65
     1     2      3       1.33       0.59       0.56
     1     1      2       1.33       1.17       0.12

 Time of computation ->  20251130.073000      in sec:     631800.
 not possible to compute, first iteration

  ** WARNING : Differences in wave height at the boundary
 Relative difference between input and computation >=   0.10
                         Hs[m]      Hs[m]      Hs[-]
     ix    iy  index   (input) (computed) (relative)
  --------------------------------------------------
     1    36     37       1.33       1.14       0.14
     1    35     36       1.33       0.75       0.43
     1    34     35       1.33       0.59       0.56
     1    33     34       1.33       0.51       0.62
     1    32     33       1.33       0.47       0.65
     1    31     32       1.33       0.45       0.66
     1    30     31       1.33       0.43       0.67
     1    29     30       1.33       0.42       0.68
     1    28     29       1.33       0.42       0.68
     1    27     28       1.33       0.42       0.69
     1    26     27       1.33       0.42       0.69
     1    25     26       1.33       0.41       0.69
     1    24     25       1.33       0.41       0.69
     1    23     24       1.33       0.41       0.69
     1    22     23       1.33       0.41       0.69
     1    21     22       1.33       0.41       0.69
     1    20     21       1.33       0.41       0.69
     1    19     20       1.33       0.41       0.69
     1    18     19       1.33       0.41       0.69
     1    17     18       1.33       0.41       0.69
     1    16     17       1.33       0.41       0.69
     1    15     16       1.33       0.41       0.69
     1    14     15       1.33       0.41       0.69
     1    13     14       1.33       0.40       0.70
     1    12     13       1.33       0.40       0.70
     1    11     12       1.33       0.40       0.70
     1    10     11       1.33       0.40       0.70
     1     9     10       1.33       0.40       0.70
     1     8      9       1.33       0.39       0.70
     1     7      8       1.33       0.39       0.70
     1     6      7       1.33       0.40       0.70
     1     5      6       1.33       0.40       0.70
     1     4      5       1.33       0.42       0.68
     1     3      4       1.33       0.47       0.65
     1     2      3       1.33       0.59       0.56
     1     1      2       1.33       1.17       0.12

 Time of computation ->  20251130.074500      in sec:     632700.
 not possible to compute, first iteration

  ** WARNING : Differences in wave height at the boundary
 Relative difference between input and computation >=   0.10
                         Hs[m]      Hs[m]      Hs[-]
     ix    iy  index   (input) (computed) (relative)
  --------------------------------------------------
     1    36     37       1.32       1.14       0.14
     1    35     36       1.32       0.75       0.43
     1    34     35       1.32       0.59       0.56
     1    33     34       1.32       0.51       0.62
     1    32     33       1.32       0.47       0.65
     1    31     32       1.32       0.44       0.66
     1    30     31       1.32       0.43       0.68
     1    29     30       1.32       0.42       0.68
     1    28     29       1.32       0.42       0.68
     1    27     28       1.32       0.41       0.69
     1    26     27       1.32       0.41       0.69
     1    25     26       1.32       0.41       0.69
     1    24     25       1.32       0.41       0.69
     1    23     24       1.32       0.41       0.69
     1    22     23       1.32       0.41       0.69
     1    21     22       1.32       0.41       0.69
     1    20     21       1.32       0.41       0.69
     1    19     20       1.32       0.40       0.69
     1    18     19       1.32       0.40       0.69
     1    17     18       1.32       0.40       0.69
     1    16     17       1.32       0.40       0.69
     1    15     16       1.32       0.40       0.70
     1    14     15       1.32       0.40       0.70
     1    13     14       1.32       0.40       0.70
     1    12     13       1.32       0.40       0.70
     1    11     12       1.32       0.40       0.70
     1    10     11       1.32       0.40       0.70
     1     9     10       1.32       0.39       0.70
     1     8      9       1.32       0.39       0.70
     1     7      8       1.32       0.39       0.70
     1     6      7       1.32       0.39       0.70
     1     5      6       1.32       0.40       0.70
     1     4      5       1.32       0.42       0.68
     1     3      4       1.32       0.47       0.65
     1     2      3       1.32       0.59       0.56
     1     1      2       1.32       1.17       0.12

 Time of computation ->  20251130.080000      in sec:     633600.
 not possible to compute, first iteration

  ** WARNING : Differences in wave height at the boundary
 Relative difference between input and computation >=   0.10
                         Hs[m]      Hs[m]      Hs[-]
     ix    iy  index   (input) (computed) (relative)
  --------------------------------------------------
     1    36     37       1.32       1.13       0.14
     1    35     36       1.32       0.74       0.44
     1    34     35       1.32       0.58       0.56
     1    33     34       1.32       0.50       0.62
     1    32     33       1.32       0.46       0.65
     1    31     32       1.32       0.44       0.67
     1    30     31       1.32       0.43       0.68
     1    29     30       1.32       0.42       0.68
     1    28     29       1.32       0.41       0.69
     1    27     28       1.32       0.41       0.69
     1    26     27       1.32       0.41       0.69
     1    25     26       1.32       0.41       0.69
     1    24     25       1.32       0.41       0.69
     1    23     24       1.32       0.41       0.69
     1    22     23       1.32       0.40       0.69
     1    21     22       1.32       0.40       0.69
     1    20     21       1.32       0.40       0.70
     1    19     20       1.32       0.40       0.70
     1    18     19       1.32       0.40       0.70
     1    17     18       1.32       0.40       0.70
     1    16     17       1.32       0.40       0.70
     1    15     16       1.32       0.40       0.70
     1    14     15       1.32       0.40       0.70
     1    13     14       1.32       0.40       0.70
     1    12     13       1.32       0.40       0.70
     1    11     12       1.32       0.40       0.70
     1    10     11       1.32       0.39       0.70
     1     9     10       1.32       0.39       0.70
     1     8      9       1.32       0.39       0.70
     1     7      8       1.32       0.39       0.71
     1     6      7       1.32       0.39       0.70
     1     5      6       1.32       0.40       0.70
     1     4      5       1.32       0.42       0.68
     1     3      4       1.32       0.47       0.65
     1     2      3       1.32       0.58       0.56
     1     1      2       1.32       1.16       0.12

 Time of computation ->  20251130.081500      in sec:     634500.
 not possible to compute, first iteration

  ** WARNING : Differences in wave height at the boundary
 Relative difference between input and computation >=   0.10
                         Hs[m]      Hs[m]      Hs[-]
     ix    iy  index   (input) (computed) (relative)
  --------------------------------------------------
     1    36     37       1.32       1.13       0.14
     1    35     36       1.32       0.74       0.44
     1    34     35       1.32       0.58       0.56
     1    33     34       1.32       0.50       0.62
     1    32     33       1.32       0.46       0.65
     1    31     32       1.32       0.44       0.67
     1    30     31       1.32       0.42       0.68
     1    29     30       1.32       0.42       0.68
     1    28     29       1.32       0.41       0.69
     1    27     28       1.32       0.41       0.69
     1    26     27       1.32       0.41       0.69
     1    25     26       1.32       0.41       0.69
     1    24     25       1.32       0.40       0.69
     1    23     24       1.32       0.40       0.69
     1    22     23       1.32       0.40       0.70
     1    21     22       1.32       0.40       0.70
     1    20     21       1.32       0.40       0.70
     1    19     20       1.32       0.40       0.70
     1    18     19       1.32       0.40       0.70
     1    17     18       1.32       0.40       0.70
     1    16     17       1.32       0.40       0.70
     1    15     16       1.32       0.40       0.70
     1    14     15       1.32       0.40       0.70
     1    13     14       1.32       0.40       0.70
     1    12     13       1.32       0.39       0.70
     1    11     12       1.32       0.39       0.70
     1    10     11       1.32       0.39       0.70
     1     9     10       1.32       0.39       0.70
     1     8      9       1.32       0.39       0.71
     1     7      8       1.32       0.39       0.71
     1     6      7       1.32       0.39       0.71
     1     5      6       1.32       0.39       0.70
     1     4      5       1.32       0.42       0.68
     1     3      4       1.32       0.46       0.65
     1     2      3       1.32       0.58       0.56
     1     1      2       1.32       1.16       0.12

 Time of computation ->  20251130.083000      in sec:     635400.
 not possible to compute, first iteration

  ** WARNING : Differences in wave height at the boundary
 Relative difference between input and computation >=   0.10
                         Hs[m]      Hs[m]      Hs[-]
     ix    iy  index   (input) (computed) (relative)
  --------------------------------------------------
     1    36     37       1.31       1.12       0.15
     1    35     36       1.31       0.74       0.44
     1    34     35       1.31       0.57       0.56
     1    33     34       1.31       0.50       0.62
     1    32     33       1.31       0.46       0.65
     1    31     32       1.31       0.43       0.67
     1    30     31       1.31       0.42       0.68
     1    29     30       1.31       0.41       0.69
     1    28     29       1.31       0.41       0.69
     1    27     28       1.31       0.41       0.69
     1    26     27       1.31       0.40       0.69
     1    25     26       1.31       0.40       0.69
     1    24     25       1.31       0.40       0.69
     1    23     24       1.31       0.40       0.70
     1    22     23       1.31       0.40       0.70
     1    21     22       1.31       0.40       0.70
     1    20     21       1.31       0.40       0.70
     1    19     20       1.31       0.40       0.70
     1    18     19       1.31       0.40       0.70
     1    17     18       1.31       0.40       0.70
     1    16     17       1.31       0.40       0.70
     1    15     16       1.31       0.40       0.70
     1    14     15       1.31       0.39       0.70
     1    13     14       1.31       0.39       0.70
     1    12     13       1.31       0.39       0.70
     1    11     12       1.31       0.39       0.70
     1    10     11       1.31       0.39       0.71
     1     9     10       1.31       0.39       0.71
     1     8      9       1.31       0.38       0.71
     1     7      8       1.31       0.38       0.71
     1     6      7       1.31       0.38       0.71
     1     5      6       1.31       0.39       0.70
     1     4      5       1.31       0.41       0.69
     1     3      4       1.31       0.46       0.65
     1     2      3       1.31       0.58       0.56
     1     1      2       1.31       1.16       0.12

 Time of computation ->  20251130.084500      in sec:     636300.
 not possible to compute, first iteration

  ** WARNING : Differences in wave height at the boundary
 Relative difference between input and computation >=   0.10
                         Hs[m]      Hs[m]      Hs[-]
     ix    iy  index   (input) (computed) (relative)
  --------------------------------------------------
     1    36     37       1.31       1.12       0.15
     1    35     36       1.31       0.73       0.44
     1    34     35       1.31       0.57       0.56
     1    33     34       1.31       0.49       0.62
     1    32     33       1.31       0.45       0.65
     1    31     32       1.31       0.43       0.67
     1    30     31       1.31       0.42       0.68
     1    29     30       1.31       0.41       0.69
     1    28     29       1.31       0.40       0.69
     1    27     28       1.31       0.40       0.69
     1    26     27       1.31       0.40       0.69
     1    25     26       1.31       0.40       0.70
     1    24     25       1.31       0.40       0.70
     1    23     24       1.31       0.40       0.70
     1    22     23       1.31       0.39       0.70
     1    21     22       1.31       0.39       0.70
     1    20     21       1.31       0.39       0.70
     1    19     20       1.31       0.39       0.70
     1    18     19       1.31       0.39       0.70
     1    17     18       1.31       0.39       0.70
     1    16     17       1.31       0.39       0.70
     1    15     16       1.31       0.39       0.70
     1    14     15       1.31       0.39       0.70
     1    13     14       1.31       0.39       0.70
     1    12     13       1.31       0.39       0.70
     1    11     12       1.31       0.39       0.71
     1    10     11       1.31       0.38       0.71
     1     9     10       1.31       0.38       0.71
     1     8      9       1.31       0.38       0.71
     1     7      8       1.31       0.38       0.71
     1     6      7       1.31       0.38       0.71
     1     5      6       1.31       0.39       0.70
     1     4      5       1.31       0.41       0.69
     1     3      4       1.31       0.46       0.65
     1     2      3       1.31       0.58       0.56
     1     1      2       1.31       1.15       0.12

 Time of computation ->  20251130.090000      in sec:     637200.
 not possible to compute, first iteration

  ** WARNING : Differences in wave height at the boundary
 Relative difference between input and computation >=   0.10
                         Hs[m]      Hs[m]      Hs[-]
     ix    iy  index   (input) (computed) (relative)
  --------------------------------------------------
     1    36     37       1.30       1.11       0.15
     1    35     36       1.30       0.72       0.44
     1    34     35       1.30       0.56       0.57
     1    33     34       1.30       0.49       0.63
     1    32     33       1.30       0.45       0.66
     1    31     32       1.30       0.42       0.67
     1    30     31       1.30       0.41       0.68
     1    29     30       1.30       0.40       0.69
     1    28     29       1.30       0.40       0.69
     1    27     28       1.30       0.40       0.70
     1    26     27       1.30       0.39       0.70
     1    25     26       1.30       0.39       0.70
     1    24     25       1.30       0.39       0.70
     1    23     24       1.30       0.39       0.70
     1    22     23       1.30       0.39       0.70
     1    21     22       1.30       0.39       0.70
     1    20     21       1.30       0.39       0.70
     1    19     20       1.30       0.39       0.70
     1    18     19       1.30       0.39       0.70
     1    17     18       1.30       0.39       0.70
     1    16     17       1.30       0.39       0.70
     1    15     16       1.30       0.39       0.70
     1    14     15       1.30       0.38       0.70
     1    13     14       1.30       0.38       0.71
     1    12     13       1.30       0.38       0.71
     1    11     12       1.30       0.38       0.71
     1    10     11       1.30       0.38       0.71
     1     9     10       1.30       0.38       0.71
     1     8      9       1.30       0.37       0.71
     1     7      8       1.30       0.37       0.71
     1     6      7       1.30       0.38       0.71
     1     5      6       1.30       0.38       0.71
     1     4      5       1.30       0.40       0.69
     1     3      4       1.30       0.45       0.65
     1     2      3       1.30       0.58       0.56
     1     1      2       1.30       1.15       0.12

    
 STOP
