1

                    Execution started at 20251123.121811         



                    ---------------------------------------
                                     SWAN
                    SIMULATION OF WAVES IN NEAR SHORE AREAS
                             VERSION NUMBER 41.51               
                    ---------------------------------------


    
 $ SWAN INPUT: ARUGAM BAY (7 DAY / 3 HR)
    
 PROJECT 'ARUGAM' '1'
    
 MODE NONSTATIONARY
    
 COORDINATES SPHERICAL
    
 
    
 $ 1. GRID
    
 CGRID REGULAR 81.702083 6.702083 0.0 0.2958 0.2958 71 71 CIRCLE 36 0.05 1.0 24
 Resolution in sigma-space: df/f =  0.1329
    
 INPGRID BOTTOM 81.702083 6.702083 0.0 71 71 0.004167 0.004167 EXC -99
    
 READGRID BOTTOM 1 'arugam.bot' 1 0 FREE
 ** Warning          : Point removed from computational grid
Point with index (    25,    72) was removed from computational grid, because it is part of a 1D configuration or 1D connection.
 ** Warning          : Point removed from computational grid
Point with index (    30,    53) was removed from computational grid because it is an isolated wet point or is part of a 1D configuration or 1D connection.
 ** Warning          : Point removed from computational grid
Point with index (    30,    47) was removed from computational grid because it is an isolated wet point or is part of a 1D configuration or 1D connection.
 ** Warning          : Point removed from computational grid
Point with index (    40,     7) was removed from computational grid because it is an isolated wet point or is part of a 1D configuration or 1D connection.
 ** Warning          : Point removed from computational grid
Point with index (    28,    32) was removed from computational grid, because it is part of a 1D configuration or 1D connection.
 ** Warning          : Point removed from computational grid
Point with index (    29,    33) was removed from computational grid, because it is part of a 1D configuration or 1D connection.
 ** Warning          : Point removed from computational grid
Point with index (    29,    34) was removed from computational grid, because it is part of a 1D configuration or 1D connection.
 ** Warning          : Point removed from computational grid
Point with index (    29,    57) was removed from computational grid, because it is part of a 1D configuration or 1D connection.
 ** Warning          : Point removed from computational grid
Point with index (    30,    33) was removed from computational grid, because it is part of a 1D configuration or 1D connection.
 ** Warning          : Point removed from computational grid
Point with index (    33,    26) was removed from computational grid, because it is part of a 1D configuration or 1D connection.
 ** Warning          : Point removed from computational grid
Point with index (    34,    25) was removed from computational grid, because it is part of a 1D configuration or 1D connection.
 ** Warning          : Point removed from computational grid
Point with index (    36,     2) was removed from computational grid, because it is part of a 1D configuration or 1D connection.
 ** Warning          : Point removed from computational grid
Point with index (    37,     2) was removed from computational grid, because it is part of a 1D configuration or 1D connection.
 ** Warning          : Point removed from computational grid
Point with index (    39,     3) was removed from computational grid, because it is part of a 1D configuration or 1D connection.
 ** Warning          : Point removed from computational grid
Point with index (    39,     4) was removed from computational grid, because it is part of a 1D configuration or 1D connection.
 ** Warning          : Point removed from computational grid
Point with index (    39,    11) was removed from computational grid, because it is part of a 1D configuration or 1D connection.
    
 
    
 $ 2. BOUNDARIES
    
 BOUND SHAPE JONSWAP 3.3 PEAK DSPR DEGREES
    
 BOUNDSPEC SIDE EAST CONSTANT FILE 'arugam_boundary.bnd'
    
 BOUNDSPEC SIDE SOUTH CONSTANT FILE 'arugam_boundary_copy.bnd'
    
 
    
 $ 3. PHYSICS
    
 BREAKING CON 1.0 0.73
    
 FRICTION JONSWAP CONSTANT 0.067
    
 OFF WCAP
    
 OFF QUAD
    
 
    
 $ 4. NUMERICS
    
 PROP BSBT
    
 NUMERIC STOPC 0.005 0.005 0.005 95. STAT 15
    
 
    
 $ 5. OUTPUT
    
 POINTS 'DEEP' 81.9979 6.9438
    
 POINTS 'MID'  81.9000 6.8400
    
 POINTS 'SURF' 81.8450 6.8400
    
 
    
 $ CHANGE: Output every 3 Hours now
    
 TABLE 'DEEP' HEAD 'deep_forecast.tbl' HS TPS DIR DEPTH QB OUTPUT 20251123.0600 3 HR
    
 TABLE 'MID'  HEAD 'mid_forecast.tbl'  HS TPS DIR DEPTH QB OUTPUT 20251123.0600 3 HR
    
 TABLE 'SURF' HEAD 'surf_forecast.tbl' HS TPS DIR DEPTH QB OUTPUT 20251123.0600 3 HR
    
 
    
 $ 6. RUN
    
 COMPUTE 20251123.0600 15 MIN 20251130.0600
 ** Warning          : Limiter is de-activated in case of no quadruplets
 Boundary data type TPAR processed, time:       21600.
 Boundary data type TPAR processed, time:       21600.
 Time of computation ->  20251123.061500      in sec:      22500.
 Boundary data type TPAR processed, time:       32400.
 Boundary data type TPAR processed, time:       32400.

----------------------------------------------------------------
                  COMPUTATIONAL PART OF SWAN
----------------------------------------------------------------

 Gridresolution       : MXC              72 MYC             72
                      : MCGRD          2839
                      : MSC              25 MDC             36
                      : MTC             672
                      : NSTATC            1 ITERMX           1
 Propagation flags    : ITFRE             1 IREFR            1
 Source term flags    : IBOT              1 ISURF            1
                      : IWCAP             0 IWIND            0
                      : ITRIAD            0 IQUAD            0
                      : IBRAG             0 IQCM             0
                      : IVEG              0 ITURBV           0
                      : IMUD              0 IICE             0
 Spatial step         : DX       0.4166E-02 DY      0.4166E-02
 Spectral bin         : df/f     0.1329E+00 DDIR    0.1000E+02
 Physical constants   : GRAV     0.9810E+01 RHO     0.1025E+04
 Wind input           : WSPEED   0.0000E+00 DIR     0.0000E+00
                      : ICEWIND  0.00
 Tail parameters      : E(f)     0.4000E+01 E(k)    0.2500E+01
                      : A(f)     0.5000E+01 A(k)    0.3000E+01
 Accuracy parameters  : DREL     0.5000E-02 NPNTS   0.9500E+02
                      : DHABS    0.5000E-02 CURVAT  0.5000E-02
                      : GRWMX    0.1000E+21
 Drying/flooding      : LEVEL    0.0000E+00 DEPMIN  0.5000E-01
 The Cartesian convention for wind and wave directions is used
 Scheme for geographic propagation is BSBT  
 Scheme geogr. space  : PROPSC            1 ICMAX            5
 Scheme spectral space: CSS      0.5000E+00 CDD     0.5000E+00
 Current is off
 Quadruplets is off
 Triads is off
 Bragg scattering is off
 QC scattering is off
 Surfbeat (IEM) is off
 JONSWAP (`73)        : GAMMA    0.6700E-01
 Vegetation is off
 Turbulence is off
 Fluid mud is off
 Dissipation by sea ice is off
 Whitecapping is off
 Battjes&Janssen (`78): ALPHA    0.1000E+01 GAMMA   0.7300E+00
 Set-up is off
 Diffraction is off
 Janssen (`89,`90)    : ALPHA    0.1000E-01 KAPPA   0.4100E+00
 Janssen (`89,`90)    : RHOA     0.1280E+01 RHOW    0.1025E+04

 1st and 2nd gen. wind: CF10     0.1880E+03 CF20    0.5900E+00
                      : CF30     0.1200E+00 CF40    0.2500E+03
                      : CF50     0.2300E-02 CF60   -0.2230E+00
                      : CF70     0.0000E+00 CF80   -0.5600E+00
                      : RHOAW    0.1249E-02 EDMLPM  0.3600E-02
                      : CDRAG    0.1230E-02 UMIN    0.1000E+01
                      : LIM_PM   0.1300E+00

 not possible to compute, first iteration


 Time of computation ->  20251123.063000      in sec:      23400.
 not possible to compute, first iteration


 Time of computation ->  20251123.064500      in sec:      24300.
 not possible to compute, first iteration


 Time of computation ->  20251123.070000      in sec:      25200.
 not possible to compute, first iteration


 Time of computation ->  20251123.071500      in sec:      26100.
 not possible to compute, first iteration


 Time of computation ->  20251123.073000      in sec:      27000.
 not possible to compute, first iteration


 Time of computation ->  20251123.074500      in sec:      27900.
 not possible to compute, first iteration


 Time of computation ->  20251123.080000      in sec:      28800.
 not possible to compute, first iteration


 Time of computation ->  20251123.081500      in sec:      29700.
 not possible to compute, first iteration

  ** WARNING : Differences in wave height at the boundary
 Relative difference between input and computation >=   0.10
                         Hs[m]      Hs[m]      Hs[-]
     ix    iy  index   (input) (computed) (relative)
  --------------------------------------------------
    72    72   2839       0.76       0.68       0.11
    72    71   2838       0.76       0.68       0.11
    72    70   2837       0.76       0.68       0.11
    72    69   2836       0.76       0.68       0.11
    72    68   2835       0.76       0.68       0.11
    72    67   2834       0.76       0.67       0.12
    72    66   2833       0.76       0.67       0.12
    72    65   2832       0.76       0.67       0.11
    72    64   2831       0.76       0.68       0.11
    72    63   2830       0.76       0.68       0.11
    72    62   2829       0.76       0.68       0.11
    72    61   2828       0.76       0.68       0.11
    72    60   2827       0.76       0.68       0.11
    72    59   2826       0.76       0.68       0.11
    72    58   2825       0.76       0.68       0.11
    72    57   2824       0.76       0.68       0.11
    72    56   2823       0.76       0.68       0.11
    72    55   2822       0.76       0.68       0.11
    72    54   2821       0.76       0.68       0.11
    72    53   2820       0.76       0.68       0.11
    72    52   2819       0.76       0.68       0.11
    72    51   2818       0.76       0.68       0.11
    72    50   2817       0.76       0.68       0.11
    72    49   2816       0.76       0.68       0.11
    72    48   2815       0.76       0.68       0.11
    72    47   2814       0.76       0.68       0.11
    72    46   2813       0.76       0.68       0.11
    72    45   2812       0.76       0.68       0.11
    72    44   2811       0.76       0.68       0.11
    72    43   2810       0.76       0.68       0.11
    72    42   2809       0.76       0.68       0.11
    72    41   2808       0.76       0.68       0.11
    72    40   2807       0.76       0.68       0.11
    72    39   2806       0.76       0.68       0.11
    72    38   2805       0.76       0.68       0.11
    72    37   2804       0.76       0.68       0.11
    72    36   2803       0.76       0.68       0.11
    72    35   2802       0.76       0.68       0.11
    72    34   2801       0.76       0.68       0.10

 Time of computation ->  20251123.083000      in sec:      30600.
 not possible to compute, first iteration

  ** WARNING : Differences in wave height at the boundary
 Relative difference between input and computation >=   0.10
                         Hs[m]      Hs[m]      Hs[-]
     ix    iy  index   (input) (computed) (relative)
  --------------------------------------------------
    72    72   2839       0.76       0.64       0.16
    72    71   2838       0.76       0.64       0.16
    72    70   2837       0.76       0.64       0.16
    72    69   2836       0.76       0.64       0.16
    72    68   2835       0.76       0.64       0.17
    72    67   2834       0.76       0.63       0.18
    72    66   2833       0.76       0.63       0.18
    72    65   2832       0.76       0.63       0.17
    72    64   2831       0.76       0.63       0.17
    72    63   2830       0.76       0.63       0.17
    72    62   2829       0.76       0.63       0.17
    72    61   2828       0.76       0.63       0.17
    72    60   2827       0.76       0.63       0.17
    72    59   2826       0.76       0.63       0.17
    72    58   2825       0.76       0.63       0.17
    72    57   2824       0.76       0.63       0.17
    72    56   2823       0.76       0.63       0.17
    72    55   2822       0.76       0.63       0.17
    72    54   2821       0.76       0.63       0.17
    72    53   2820       0.76       0.63       0.17
    72    52   2819       0.76       0.63       0.17
    72    51   2818       0.76       0.63       0.17
    72    50   2817       0.76       0.63       0.17
    72    49   2816       0.76       0.63       0.17
    72    48   2815       0.76       0.63       0.17
    72    47   2814       0.76       0.63       0.17
    72    46   2813       0.76       0.63       0.17
    72    45   2812       0.76       0.64       0.17
    72    44   2811       0.76       0.64       0.17
    72    43   2810       0.76       0.64       0.17
    72    42   2809       0.76       0.64       0.17
    72    41   2808       0.76       0.64       0.17
    72    40   2807       0.76       0.64       0.17
    72    39   2806       0.76       0.64       0.17
    72    38   2805       0.76       0.64       0.17
    72    37   2804       0.76       0.64       0.17
    72    36   2803       0.76       0.64       0.16
    72    35   2802       0.76       0.64       0.16
    72    34   2801       0.76       0.64       0.16
    72    33   2800       0.76       0.65       0.15
    72    32   2799       0.76       0.65       0.15
    72    31   2798       0.76       0.65       0.15
    72    30   2797       0.76       0.65       0.14
    72    29   2796       0.76       0.65       0.14
    72    28   2795       0.76       0.66       0.14
    72    27   2794       0.76       0.66       0.14
    72    26   2793       0.76       0.66       0.13
    72    25   2792       0.76       0.66       0.13
    72    24   2791       0.76       0.66       0.13
    72    23   2790       0.76       0.67       0.13
    72    22   2789       0.76       0.67       0.12
    72    21   2788       0.76       0.67       0.12
    72    20   2787       0.76       0.67       0.12
    72    19   2786       0.76       0.68       0.11
    72    18   2785       0.76       0.68       0.10

 Time of computation ->  20251123.084500      in sec:      31500.
 not possible to compute, first iteration

  ** WARNING : Differences in wave height at the boundary
 Relative difference between input and computation >=   0.10
                         Hs[m]      Hs[m]      Hs[-]
     ix    iy  index   (input) (computed) (relative)
  --------------------------------------------------
    72    72   2839       0.76       0.58       0.24
    72    71   2838       0.76       0.58       0.25
    72    70   2837       0.76       0.58       0.25
    72    69   2836       0.76       0.58       0.25
    72    68   2835       0.76       0.57       0.25
    72    67   2834       0.76       0.56       0.26
    72    66   2833       0.76       0.56       0.26
    72    65   2832       0.76       0.57       0.25
    72    64   2831       0.76       0.57       0.25
    72    63   2830       0.76       0.57       0.25
    72    62   2829       0.76       0.57       0.25
    72    61   2828       0.76       0.57       0.25
    72    60   2827       0.76       0.57       0.25
    72    59   2826       0.76       0.57       0.25
    72    58   2825       0.76       0.57       0.25
    72    57   2824       0.76       0.57       0.25
    72    56   2823       0.76       0.57       0.25
    72    55   2822       0.76       0.57       0.25
    72    54   2821       0.76       0.57       0.25
    72    53   2820       0.76       0.57       0.25
    72    52   2819       0.76       0.57       0.25
    72    51   2818       0.76       0.57       0.25
    72    50   2817       0.76       0.57       0.25
    72    49   2816       0.76       0.57       0.25
    72    48   2815       0.76       0.57       0.25
    72    47   2814       0.76       0.57       0.25
    72    46   2813       0.76       0.57       0.25
    72    45   2812       0.76       0.57       0.25
    72    44   2811       0.76       0.57       0.25
    72    43   2810       0.76       0.57       0.25
    72    42   2809       0.76       0.57       0.25
    72    41   2808       0.76       0.57       0.25
    72    40   2807       0.76       0.58       0.25
    72    39   2806       0.76       0.58       0.25
    72    38   2805       0.76       0.58       0.25
    72    37   2804       0.76       0.58       0.24
    72    36   2803       0.76       0.58       0.24
    72    35   2802       0.76       0.58       0.24
    72    34   2801       0.76       0.59       0.23
    72    33   2800       0.76       0.59       0.23
    72    32   2799       0.76       0.59       0.22
    72    31   2798       0.76       0.60       0.22
    72    30   2797       0.76       0.60       0.22
    72    29   2796       0.76       0.60       0.21
    72    28   2795       0.76       0.60       0.21
    72    27   2794       0.76       0.61       0.21
    72    26   2793       0.76       0.61       0.20
    72    25   2792       0.76       0.61       0.20
    72    24   2791       0.76       0.61       0.19
    72    23   2790       0.76       0.62       0.19
    72    22   2789       0.76       0.62       0.19
    72    21   2788       0.76       0.62       0.18
    72    20   2787       0.76       0.63       0.18
    72    19   2786       0.76       0.63       0.17
    72    18   2785       0.76       0.64       0.16
    72    17   2784       0.76       0.65       0.15
    72    16   2783       0.76       0.65       0.14
    72    15   2782       0.76       0.66       0.13
    72    14   2781       0.76       0.67       0.12
    72    13   2780       0.76       0.67       0.12
    72    12   2779       0.76       0.68       0.11
    72    11   2778       0.76       0.67       0.11
    72    10   2777       0.76       0.67       0.12
    72     9   2776       0.76       0.68       0.11

 Time of computation ->  20251123.090000      in sec:      32400.
 not possible to compute, first iteration

  ** WARNING : Differences in wave height at the boundary
 Relative difference between input and computation >=   0.10
                         Hs[m]      Hs[m]      Hs[-]
     ix    iy  index   (input) (computed) (relative)
  --------------------------------------------------
    72    72   2839       0.76       0.50       0.34
    72    71   2838       0.76       0.49       0.35
    72    70   2837       0.76       0.49       0.35
    72    69   2836       0.76       0.49       0.35
    72    68   2835       0.76       0.49       0.35
    72    67   2834       0.76       0.48       0.37
    72    66   2833       0.76       0.48       0.37
    72    65   2832       0.76       0.49       0.36
    72    64   2831       0.76       0.49       0.36
    72    63   2830       0.76       0.49       0.36
    72    62   2829       0.76       0.49       0.36
    72    61   2828       0.76       0.49       0.36
    72    60   2827       0.76       0.49       0.36
    72    59   2826       0.76       0.49       0.36
    72    58   2825       0.76       0.49       0.36
    72    57   2824       0.76       0.49       0.36
    72    56   2823       0.76       0.49       0.36
    72    55   2822       0.76       0.49       0.36
    72    54   2821       0.76       0.49       0.36
    72    53   2820       0.76       0.49       0.35
    72    52   2819       0.76       0.49       0.35
    72    51   2818       0.76       0.49       0.35
    72    50   2817       0.76       0.49       0.35
    72    49   2816       0.76       0.49       0.35
    72    48   2815       0.76       0.49       0.35
    72    47   2814       0.76       0.49       0.35
    72    46   2813       0.76       0.49       0.35
    72    45   2812       0.76       0.49       0.35
    72    44   2811       0.76       0.49       0.35
    72    43   2810       0.76       0.49       0.35
    72    42   2809       0.76       0.49       0.35
    72    41   2808       0.76       0.49       0.35
    72    40   2807       0.76       0.49       0.35
    72    39   2806       0.76       0.50       0.35
    72    38   2805       0.76       0.50       0.35
    72    37   2804       0.76       0.50       0.34
    72    36   2803       0.76       0.50       0.34
    72    35   2802       0.76       0.51       0.33
    72    34   2801       0.76       0.51       0.33
    72    33   2800       0.76       0.52       0.32
    72    32   2799       0.76       0.52       0.32
    72    31   2798       0.76       0.52       0.31
    72    30   2797       0.76       0.53       0.31
    72    29   2796       0.76       0.53       0.30
    72    28   2795       0.76       0.53       0.30
    72    27   2794       0.76       0.54       0.29
    72    26   2793       0.76       0.54       0.29
    72    25   2792       0.76       0.54       0.28
    72    24   2791       0.76       0.55       0.28
    72    23   2790       0.76       0.55       0.27
    72    22   2789       0.76       0.56       0.26
    72    21   2788       0.76       0.56       0.26
    72    20   2787       0.76       0.57       0.25
    72    19   2786       0.76       0.58       0.24
    72    18   2785       0.76       0.59       0.23
    72    17   2784       0.76       0.59       0.22
    72    16   2783       0.76       0.60       0.21
    72    15   2782       0.76       0.61       0.19
    72    14   2781       0.76       0.62       0.18
    72    13   2780       0.76       0.63       0.17
    72    12   2779       0.76       0.64       0.16
    72    11   2778       0.76       0.63       0.16
    72    10   2777       0.76       0.63       0.17
    72     9   2776       0.76       0.64       0.16
    72     8   2775       0.76       0.66       0.13
    72     7   2774       0.76       0.68       0.11

 Time of computation ->  20251123.091500      in sec:      33300.
 Boundary data type TPAR processed, time:       43200.
 Boundary data type TPAR processed, time:       43200.
 not possible to compute, first iteration

  ** WARNING : Differences in wave height at the boundary
 Relative difference between input and computation >=   0.10
                         Hs[m]      Hs[m]      Hs[-]
     ix    iy  index   (input) (computed) (relative)
  --------------------------------------------------
    72    72   2839       0.76       0.54       0.29
    72    71   2838       0.76       0.54       0.29
    72    70   2837       0.76       0.54       0.29
    72    69   2836       0.76       0.54       0.29
    72    68   2835       0.76       0.54       0.29
    72    67   2834       0.76       0.53       0.31
    72    66   2833       0.76       0.53       0.31
    72    65   2832       0.76       0.53       0.30
    72    64   2831       0.76       0.53       0.30
    72    63   2830       0.76       0.53       0.30
    72    62   2829       0.76       0.53       0.30
    72    61   2828       0.76       0.53       0.30
    72    60   2827       0.76       0.53       0.29
    72    59   2826       0.76       0.53       0.29
    72    58   2825       0.76       0.53       0.29
    72    57   2824       0.76       0.54       0.29
    72    56   2823       0.76       0.54       0.29
    72    55   2822       0.76       0.54       0.29
    72    54   2821       0.76       0.54       0.29
    72    53   2820       0.76       0.54       0.29
    72    52   2819       0.76       0.54       0.29
    72    51   2818       0.76       0.54       0.29
    72    50   2817       0.76       0.54       0.29
    72    49   2816       0.76       0.54       0.29
    72    48   2815       0.76       0.54       0.29
    72    47   2814       0.76       0.54       0.29
    72    46   2813       0.76       0.54       0.29
    72    45   2812       0.76       0.54       0.29
    72    44   2811       0.76       0.54       0.29
    72    43   2810       0.76       0.54       0.29
    72    42   2809       0.76       0.54       0.29
    72    41   2808       0.76       0.54       0.28
    72    40   2807       0.76       0.54       0.28
    72    39   2806       0.76       0.54       0.28
    72    38   2805       0.76       0.54       0.28
    72    37   2804       0.76       0.55       0.28
    72    36   2803       0.76       0.55       0.27
    72    35   2802       0.76       0.55       0.27
    72    34   2801       0.76       0.56       0.26
    72    33   2800       0.76       0.57       0.25
    72    32   2799       0.76       0.57       0.25
    72    31   2798       0.76       0.57       0.24
    72    30   2797       0.76       0.58       0.24
    72    29   2796       0.76       0.58       0.23
    72    28   2795       0.76       0.58       0.23
    72    27   2794       0.76       0.59       0.22
    72    26   2793       0.76       0.59       0.22
    72    25   2792       0.76       0.60       0.21
    72    24   2791       0.76       0.60       0.21
    72    23   2790       0.76       0.61       0.20
    72    22   2789       0.76       0.61       0.20
    72    21   2788       0.76       0.62       0.19
    72    20   2787       0.76       0.62       0.18
    72    19   2786       0.76       0.63       0.17
    72    18   2785       0.76       0.64       0.16
    72    17   2784       0.76       0.65       0.15
    72    16   2783       0.76       0.66       0.13
    72    15   2782       0.76       0.67       0.12
    72    14   2781       0.76       0.68       0.10

 Time of computation ->  20251123.093000      in sec:      34200.
 not possible to compute, first iteration

  ** WARNING : Differences in wave height at the boundary
 Relative difference between input and computation >=   0.10
                         Hs[m]      Hs[m]      Hs[-]
     ix    iy  index   (input) (computed) (relative)
  --------------------------------------------------
    72    72   2839       0.76       0.58       0.23
    72    71   2838       0.76       0.58       0.23
    72    70   2837       0.76       0.58       0.23
    72    69   2836       0.76       0.58       0.23
    72    68   2835       0.76       0.58       0.23
    72    67   2834       0.76       0.57       0.25
    72    66   2833       0.76       0.57       0.25
    72    65   2832       0.76       0.58       0.24
    72    64   2831       0.76       0.58       0.24
    72    63   2830       0.76       0.58       0.24
    72    62   2829       0.76       0.58       0.24
    72    61   2828       0.76       0.58       0.24
    72    60   2827       0.76       0.58       0.23
    72    59   2826       0.76       0.58       0.23
    72    58   2825       0.76       0.58       0.23
    72    57   2824       0.76       0.58       0.23
    72    56   2823       0.76       0.58       0.23
    72    55   2822       0.76       0.58       0.23
    72    54   2821       0.76       0.58       0.23
    72    53   2820       0.76       0.58       0.23
    72    52   2819       0.76       0.58       0.23
    72    51   2818       0.76       0.58       0.23
    72    50   2817       0.76       0.58       0.23
    72    49   2816       0.76       0.58       0.23
    72    48   2815       0.76       0.58       0.23
    72    47   2814       0.76       0.59       0.23
    72    46   2813       0.76       0.59       0.23
    72    45   2812       0.76       0.59       0.23
    72    44   2811       0.76       0.59       0.23
    72    43   2810       0.76       0.59       0.23
    72    42   2809       0.76       0.59       0.22
    72    41   2808       0.76       0.59       0.22
    72    40   2807       0.76       0.59       0.22
    72    39   2806       0.76       0.59       0.22
    72    38   2805       0.76       0.59       0.22
    72    37   2804       0.76       0.59       0.22
    72    36   2803       0.76       0.60       0.21
    72    35   2802       0.76       0.60       0.21
    72    34   2801       0.76       0.61       0.20
    72    33   2800       0.76       0.61       0.19
    72    32   2799       0.76       0.62       0.19
    72    31   2798       0.76       0.62       0.18
    72    30   2797       0.76       0.63       0.18
    72    29   2796       0.76       0.63       0.17
    72    28   2795       0.76       0.63       0.17
    72    27   2794       0.76       0.64       0.16
    72    26   2793       0.76       0.64       0.16
    72    25   2792       0.76       0.64       0.15
    72    24   2791       0.76       0.65       0.14
    72    23   2790       0.76       0.65       0.14
    72    22   2789       0.76       0.66       0.13
    72    21   2788       0.76       0.66       0.13
    72    20   2787       0.76       0.67       0.12
    72    19   2786       0.76       0.68       0.11

 Time of computation ->  20251123.094500      in sec:      35100.
 not possible to compute, first iteration

  ** WARNING : Differences in wave height at the boundary
 Relative difference between input and computation >=   0.10
                         Hs[m]      Hs[m]      Hs[-]
     ix    iy  index   (input) (computed) (relative)
  --------------------------------------------------
    72    72   2839       0.76       0.62       0.18
    72    71   2838       0.76       0.63       0.18
    72    70   2837       0.76       0.63       0.18
    72    69   2836       0.76       0.63       0.18
    72    68   2835       0.76       0.62       0.18
    72    67   2834       0.76       0.62       0.19
    72    66   2833       0.76       0.62       0.19
    72    65   2832       0.76       0.62       0.18
    72    64   2831       0.76       0.62       0.18
    72    63   2830       0.76       0.62       0.18
    72    62   2829       0.76       0.62       0.18
    72    61   2828       0.76       0.62       0.18
    72    60   2827       0.76       0.62       0.18
    72    59   2826       0.76       0.62       0.18
    72    58   2825       0.76       0.62       0.18
    72    57   2824       0.76       0.62       0.18
    72    56   2823       0.76       0.62       0.18
    72    55   2822       0.76       0.62       0.18
    72    54   2821       0.76       0.62       0.18
    72    53   2820       0.76       0.63       0.18
    72    52   2819       0.76       0.63       0.18
    72    51   2818       0.76       0.63       0.18
    72    50   2817       0.76       0.63       0.17
    72    49   2816       0.76       0.63       0.17
    72    48   2815       0.76       0.63       0.17
    72    47   2814       0.76       0.63       0.17
    72    46   2813       0.76       0.63       0.17
    72    45   2812       0.76       0.63       0.17
    72    44   2811       0.76       0.63       0.17
    72    43   2810       0.76       0.63       0.17
    72    42   2809       0.76       0.63       0.17
    72    41   2808       0.76       0.63       0.17
    72    40   2807       0.76       0.63       0.17
    72    39   2806       0.76       0.63       0.16
    72    38   2805       0.76       0.64       0.16
    72    37   2804       0.76       0.64       0.16
    72    36   2803       0.76       0.64       0.16
    72    35   2802       0.76       0.65       0.15
    72    34   2801       0.76       0.65       0.14
    72    33   2800       0.76       0.66       0.14
    72    32   2799       0.76       0.66       0.13
    72    31   2798       0.76       0.66       0.13
    72    30   2797       0.76       0.67       0.12
    72    29   2796       0.76       0.67       0.12
    72    28   2795       0.76       0.68       0.11
    72    27   2794       0.76       0.68       0.11
    72    26   2793       0.76       0.68       0.10

 Time of computation ->  20251123.100000      in sec:      36000.
 not possible to compute, first iteration

  ** WARNING : Differences in wave height at the boundary
 Relative difference between input and computation >=   0.10
                         Hs[m]      Hs[m]      Hs[-]
     ix    iy  index   (input) (computed) (relative)
  --------------------------------------------------
    72    72   2839       0.76       0.66       0.13
    72    71   2838       0.76       0.66       0.13
    72    70   2837       0.76       0.66       0.13
    72    69   2836       0.76       0.66       0.13
    72    68   2835       0.76       0.66       0.13
    72    67   2834       0.76       0.65       0.14
    72    66   2833       0.76       0.65       0.14
    72    65   2832       0.76       0.66       0.13
    72    64   2831       0.76       0.66       0.13
    72    63   2830       0.76       0.66       0.13
    72    62   2829       0.76       0.66       0.13
    72    61   2828       0.76       0.66       0.13
    72    60   2827       0.76       0.66       0.13
    72    59   2826       0.76       0.66       0.13
    72    58   2825       0.76       0.66       0.13
    72    57   2824       0.76       0.66       0.13
    72    56   2823       0.76       0.66       0.13
    72    55   2822       0.76       0.66       0.13
    72    54   2821       0.76       0.66       0.13
    72    53   2820       0.76       0.66       0.13
    72    52   2819       0.76       0.66       0.13
    72    51   2818       0.76       0.66       0.13
    72    50   2817       0.76       0.66       0.13
    72    49   2816       0.76       0.66       0.13
    72    48   2815       0.76       0.67       0.12
    72    47   2814       0.76       0.67       0.12
    72    46   2813       0.76       0.67       0.12
    72    45   2812       0.76       0.67       0.12
    72    44   2811       0.76       0.67       0.12
    72    43   2810       0.76       0.67       0.12
    72    42   2809       0.76       0.67       0.12
    72    41   2808       0.76       0.67       0.12
    72    40   2807       0.76       0.67       0.12
    72    39   2806       0.76       0.67       0.12
    72    38   2805       0.76       0.67       0.12
    72    37   2804       0.76       0.67       0.11
    72    36   2803       0.76       0.68       0.11
    72    35   2802       0.76       0.68       0.10

 Time of computation ->  20251123.101500      in sec:      36900.
 not possible to compute, first iteration


 Time of computation ->  20251123.103000      in sec:      37800.
 not possible to compute, first iteration


 Time of computation ->  20251123.104500      in sec:      38700.
 not possible to compute, first iteration


 Time of computation ->  20251123.110000      in sec:      39600.
 not possible to compute, first iteration


 Time of computation ->  20251123.111500      in sec:      40500.
 not possible to compute, first iteration


 Time of computation ->  20251123.113000      in sec:      41400.
 not possible to compute, first iteration


 Time of computation ->  20251123.114500      in sec:      42300.
 not possible to compute, first iteration


 Time of computation ->  20251123.120000      in sec:      43200.
 not possible to compute, first iteration


 Time of computation ->  20251123.121500      in sec:      44100.
 Boundary data type TPAR processed, time:       54000.
 Boundary data type TPAR processed, time:       54000.
 not possible to compute, first iteration


 Time of computation ->  20251123.123000      in sec:      45000.
 not possible to compute, first iteration


 Time of computation ->  20251123.124500      in sec:      45900.
 not possible to compute, first iteration


 Time of computation ->  20251123.130000      in sec:      46800.
 not possible to compute, first iteration


 Time of computation ->  20251123.131500      in sec:      47700.
 not possible to compute, first iteration


 Time of computation ->  20251123.133000      in sec:      48600.
 not possible to compute, first iteration


 Time of computation ->  20251123.134500      in sec:      49500.
 not possible to compute, first iteration


 Time of computation ->  20251123.140000      in sec:      50400.
 not possible to compute, first iteration


 Time of computation ->  20251123.141500      in sec:      51300.
 not possible to compute, first iteration


 Time of computation ->  20251123.143000      in sec:      52200.
 not possible to compute, first iteration


 Time of computation ->  20251123.144500      in sec:      53100.
 not possible to compute, first iteration


 Time of computation ->  20251123.150000      in sec:      54000.
 not possible to compute, first iteration


 Time of computation ->  20251123.151500      in sec:      54900.
 Boundary data type TPAR processed, time:       64800.
 Boundary data type TPAR processed, time:       64800.
 not possible to compute, first iteration


 Time of computation ->  20251123.153000      in sec:      55800.
 not possible to compute, first iteration


 Time of computation ->  20251123.154500      in sec:      56700.
 not possible to compute, first iteration


 Time of computation ->  20251123.160000      in sec:      57600.
 not possible to compute, first iteration


 Time of computation ->  20251123.161500      in sec:      58500.
 not possible to compute, first iteration


 Time of computation ->  20251123.163000      in sec:      59400.
 not possible to compute, first iteration


 Time of computation ->  20251123.164500      in sec:      60300.
 not possible to compute, first iteration


 Time of computation ->  20251123.170000      in sec:      61200.
 not possible to compute, first iteration


 Time of computation ->  20251123.171500      in sec:      62100.
 not possible to compute, first iteration


 Time of computation ->  20251123.173000      in sec:      63000.
 not possible to compute, first iteration


 Time of computation ->  20251123.174500      in sec:      63900.
 not possible to compute, first iteration


 Time of computation ->  20251123.180000      in sec:      64800.
 not possible to compute, first iteration


 Time of computation ->  20251123.181500      in sec:      65700.
 Boundary data type TPAR processed, time:       75600.
 Boundary data type TPAR processed, time:       75600.
 not possible to compute, first iteration


 Time of computation ->  20251123.183000      in sec:      66600.
 not possible to compute, first iteration


 Time of computation ->  20251123.184500      in sec:      67500.
 not possible to compute, first iteration


 Time of computation ->  20251123.190000      in sec:      68400.
 not possible to compute, first iteration


 Time of computation ->  20251123.191500      in sec:      69300.
 not possible to compute, first iteration


 Time of computation ->  20251123.193000      in sec:      70200.
 not possible to compute, first iteration


 Time of computation ->  20251123.194500      in sec:      71100.
 not possible to compute, first iteration


 Time of computation ->  20251123.200000      in sec:      72000.
 not possible to compute, first iteration


 Time of computation ->  20251123.201500      in sec:      72900.
 not possible to compute, first iteration


 Time of computation ->  20251123.203000      in sec:      73800.
 not possible to compute, first iteration


 Time of computation ->  20251123.204500      in sec:      74700.
 not possible to compute, first iteration


 Time of computation ->  20251123.210000      in sec:      75600.
 not possible to compute, first iteration


 Time of computation ->  20251123.211500      in sec:      76500.
 Boundary data type TPAR processed, time:       86400.
 Boundary data type TPAR processed, time:       86400.
 not possible to compute, first iteration


 Time of computation ->  20251123.213000      in sec:      77400.
 not possible to compute, first iteration


 Time of computation ->  20251123.214500      in sec:      78300.
 not possible to compute, first iteration


 Time of computation ->  20251123.220000      in sec:      79200.
 not possible to compute, first iteration


 Time of computation ->  20251123.221500      in sec:      80100.
 not possible to compute, first iteration


 Time of computation ->  20251123.223000      in sec:      81000.
 not possible to compute, first iteration


 Time of computation ->  20251123.224500      in sec:      81900.
 not possible to compute, first iteration


 Time of computation ->  20251123.230000      in sec:      82800.
 not possible to compute, first iteration


 Time of computation ->  20251123.231500      in sec:      83700.
 not possible to compute, first iteration


 Time of computation ->  20251123.233000      in sec:      84600.
 not possible to compute, first iteration


 Time of computation ->  20251123.234500      in sec:      85500.
 not possible to compute, first iteration


 Time of computation ->  20251124.000000      in sec:      86400.
 not possible to compute, first iteration


 Time of computation ->  20251124.001500      in sec:      87300.
 Boundary data type TPAR processed, time:       97200.
 Boundary data type TPAR processed, time:       97200.
 not possible to compute, first iteration


 Time of computation ->  20251124.003000      in sec:      88200.
 not possible to compute, first iteration


 Time of computation ->  20251124.004500      in sec:      89100.
 not possible to compute, first iteration


 Time of computation ->  20251124.010000      in sec:      90000.
 not possible to compute, first iteration


 Time of computation ->  20251124.011500      in sec:      90900.
 not possible to compute, first iteration


 Time of computation ->  20251124.013000      in sec:      91800.
 not possible to compute, first iteration


 Time of computation ->  20251124.014500      in sec:      92700.
 not possible to compute, first iteration


 Time of computation ->  20251124.020000      in sec:      93600.
 not possible to compute, first iteration


 Time of computation ->  20251124.021500      in sec:      94500.
 not possible to compute, first iteration


 Time of computation ->  20251124.023000      in sec:      95400.
 not possible to compute, first iteration


 Time of computation ->  20251124.024500      in sec:      96300.
 not possible to compute, first iteration


 Time of computation ->  20251124.030000      in sec:      97200.
 not possible to compute, first iteration


 Time of computation ->  20251124.031500      in sec:      98100.
 Boundary data type TPAR processed, time:      108000.
 Boundary data type TPAR processed, time:      108000.
 not possible to compute, first iteration


 Time of computation ->  20251124.033000      in sec:      99000.
 not possible to compute, first iteration


 Time of computation ->  20251124.034500      in sec:      99900.
 not possible to compute, first iteration


 Time of computation ->  20251124.040000      in sec:     100800.
 not possible to compute, first iteration


 Time of computation ->  20251124.041500      in sec:     101700.
 not possible to compute, first iteration


 Time of computation ->  20251124.043000      in sec:     102600.
 not possible to compute, first iteration


 Time of computation ->  20251124.044500      in sec:     103500.
 not possible to compute, first iteration


 Time of computation ->  20251124.050000      in sec:     104400.
 not possible to compute, first iteration


 Time of computation ->  20251124.051500      in sec:     105300.
 not possible to compute, first iteration


 Time of computation ->  20251124.053000      in sec:     106200.
 not possible to compute, first iteration


 Time of computation ->  20251124.054500      in sec:     107100.
 not possible to compute, first iteration


 Time of computation ->  20251124.060000      in sec:     108000.
 not possible to compute, first iteration


 Time of computation ->  20251124.061500      in sec:     108900.
 Boundary data type TPAR processed, time:      118800.
 Boundary data type TPAR processed, time:      118800.
 not possible to compute, first iteration


 Time of computation ->  20251124.063000      in sec:     109800.
 not possible to compute, first iteration


 Time of computation ->  20251124.064500      in sec:     110700.
 not possible to compute, first iteration


 Time of computation ->  20251124.070000      in sec:     111600.
 not possible to compute, first iteration


 Time of computation ->  20251124.071500      in sec:     112500.
 not possible to compute, first iteration


 Time of computation ->  20251124.073000      in sec:     113400.
 not possible to compute, first iteration


 Time of computation ->  20251124.074500      in sec:     114300.
 not possible to compute, first iteration


 Time of computation ->  20251124.080000      in sec:     115200.
 not possible to compute, first iteration


 Time of computation ->  20251124.081500      in sec:     116100.
 not possible to compute, first iteration


 Time of computation ->  20251124.083000      in sec:     117000.
 not possible to compute, first iteration


 Time of computation ->  20251124.084500      in sec:     117900.
 not possible to compute, first iteration


 Time of computation ->  20251124.090000      in sec:     118800.
 not possible to compute, first iteration


 Time of computation ->  20251124.091500      in sec:     119700.
 Boundary data type TPAR processed, time:      129600.
 Boundary data type TPAR processed, time:      129600.
 not possible to compute, first iteration


 Time of computation ->  20251124.093000      in sec:     120600.
 not possible to compute, first iteration


 Time of computation ->  20251124.094500      in sec:     121500.
 not possible to compute, first iteration


 Time of computation ->  20251124.100000      in sec:     122400.
 not possible to compute, first iteration


 Time of computation ->  20251124.101500      in sec:     123300.
 not possible to compute, first iteration


 Time of computation ->  20251124.103000      in sec:     124200.
 not possible to compute, first iteration


 Time of computation ->  20251124.104500      in sec:     125100.
 not possible to compute, first iteration


 Time of computation ->  20251124.110000      in sec:     126000.
 not possible to compute, first iteration


 Time of computation ->  20251124.111500      in sec:     126900.
 not possible to compute, first iteration


 Time of computation ->  20251124.113000      in sec:     127800.
 not possible to compute, first iteration


 Time of computation ->  20251124.114500      in sec:     128700.
 not possible to compute, first iteration


 Time of computation ->  20251124.120000      in sec:     129600.
 not possible to compute, first iteration


 Time of computation ->  20251124.121500      in sec:     130500.
 Boundary data type TPAR processed, time:      140400.
 Boundary data type TPAR processed, time:      140400.
 not possible to compute, first iteration


 Time of computation ->  20251124.123000      in sec:     131400.
 not possible to compute, first iteration


 Time of computation ->  20251124.124500      in sec:     132300.
 not possible to compute, first iteration


 Time of computation ->  20251124.130000      in sec:     133200.
 not possible to compute, first iteration


 Time of computation ->  20251124.131500      in sec:     134100.
 not possible to compute, first iteration


 Time of computation ->  20251124.133000      in sec:     135000.
 not possible to compute, first iteration


 Time of computation ->  20251124.134500      in sec:     135900.
 not possible to compute, first iteration


 Time of computation ->  20251124.140000      in sec:     136800.
 not possible to compute, first iteration


 Time of computation ->  20251124.141500      in sec:     137700.
 not possible to compute, first iteration


 Time of computation ->  20251124.143000      in sec:     138600.
 not possible to compute, first iteration


 Time of computation ->  20251124.144500      in sec:     139500.
 not possible to compute, first iteration


 Time of computation ->  20251124.150000      in sec:     140400.
 not possible to compute, first iteration


 Time of computation ->  20251124.151500      in sec:     141300.
 Boundary data type TPAR processed, time:      151200.
 Boundary data type TPAR processed, time:      151200.
 not possible to compute, first iteration


 Time of computation ->  20251124.153000      in sec:     142200.
 not possible to compute, first iteration


 Time of computation ->  20251124.154500      in sec:     143100.
 not possible to compute, first iteration


 Time of computation ->  20251124.160000      in sec:     144000.
 not possible to compute, first iteration


 Time of computation ->  20251124.161500      in sec:     144900.
 not possible to compute, first iteration


 Time of computation ->  20251124.163000      in sec:     145800.
 not possible to compute, first iteration


 Time of computation ->  20251124.164500      in sec:     146700.
 not possible to compute, first iteration


 Time of computation ->  20251124.170000      in sec:     147600.
 not possible to compute, first iteration


 Time of computation ->  20251124.171500      in sec:     148500.
 not possible to compute, first iteration


 Time of computation ->  20251124.173000      in sec:     149400.
 not possible to compute, first iteration


 Time of computation ->  20251124.174500      in sec:     150300.
 not possible to compute, first iteration


 Time of computation ->  20251124.180000      in sec:     151200.
 not possible to compute, first iteration


 Time of computation ->  20251124.181500      in sec:     152100.
 Boundary data type TPAR processed, time:      162000.
 Boundary data type TPAR processed, time:      162000.
 not possible to compute, first iteration


 Time of computation ->  20251124.183000      in sec:     153000.
 not possible to compute, first iteration


 Time of computation ->  20251124.184500      in sec:     153900.
 not possible to compute, first iteration


 Time of computation ->  20251124.190000      in sec:     154800.
 not possible to compute, first iteration


 Time of computation ->  20251124.191500      in sec:     155700.
 not possible to compute, first iteration


 Time of computation ->  20251124.193000      in sec:     156600.
 not possible to compute, first iteration


 Time of computation ->  20251124.194500      in sec:     157500.
 not possible to compute, first iteration


 Time of computation ->  20251124.200000      in sec:     158400.
 not possible to compute, first iteration


 Time of computation ->  20251124.201500      in sec:     159300.
 not possible to compute, first iteration


 Time of computation ->  20251124.203000      in sec:     160200.
 not possible to compute, first iteration


 Time of computation ->  20251124.204500      in sec:     161100.
 not possible to compute, first iteration


 Time of computation ->  20251124.210000      in sec:     162000.
 not possible to compute, first iteration


 Time of computation ->  20251124.211500      in sec:     162900.
 Boundary data type TPAR processed, time:      172800.
 Boundary data type TPAR processed, time:      172800.
 not possible to compute, first iteration


 Time of computation ->  20251124.213000      in sec:     163800.
 not possible to compute, first iteration


 Time of computation ->  20251124.214500      in sec:     164700.
 not possible to compute, first iteration


 Time of computation ->  20251124.220000      in sec:     165600.
 not possible to compute, first iteration


 Time of computation ->  20251124.221500      in sec:     166500.
 not possible to compute, first iteration


 Time of computation ->  20251124.223000      in sec:     167400.
 not possible to compute, first iteration


 Time of computation ->  20251124.224500      in sec:     168300.
 not possible to compute, first iteration


 Time of computation ->  20251124.230000      in sec:     169200.
 not possible to compute, first iteration


 Time of computation ->  20251124.231500      in sec:     170100.
 not possible to compute, first iteration


 Time of computation ->  20251124.233000      in sec:     171000.
 not possible to compute, first iteration


 Time of computation ->  20251124.234500      in sec:     171900.
 not possible to compute, first iteration


 Time of computation ->  20251125.000000      in sec:     172800.
 not possible to compute, first iteration


 Time of computation ->  20251125.001500      in sec:     173700.
 Boundary data type TPAR processed, time:      183600.
 Boundary data type TPAR processed, time:      183600.
 not possible to compute, first iteration


 Time of computation ->  20251125.003000      in sec:     174600.
 not possible to compute, first iteration


 Time of computation ->  20251125.004500      in sec:     175500.
 not possible to compute, first iteration


 Time of computation ->  20251125.010000      in sec:     176400.
 not possible to compute, first iteration


 Time of computation ->  20251125.011500      in sec:     177300.
 not possible to compute, first iteration


 Time of computation ->  20251125.013000      in sec:     178200.
 not possible to compute, first iteration


 Time of computation ->  20251125.014500      in sec:     179100.
 not possible to compute, first iteration


 Time of computation ->  20251125.020000      in sec:     180000.
 not possible to compute, first iteration


 Time of computation ->  20251125.021500      in sec:     180900.
 not possible to compute, first iteration


 Time of computation ->  20251125.023000      in sec:     181800.
 not possible to compute, first iteration


 Time of computation ->  20251125.024500      in sec:     182700.
 not possible to compute, first iteration


 Time of computation ->  20251125.030000      in sec:     183600.
 not possible to compute, first iteration


 Time of computation ->  20251125.031500      in sec:     184500.
 Boundary data type TPAR processed, time:      194400.
 Boundary data type TPAR processed, time:      194400.
 not possible to compute, first iteration


 Time of computation ->  20251125.033000      in sec:     185400.
 not possible to compute, first iteration


 Time of computation ->  20251125.034500      in sec:     186300.
 not possible to compute, first iteration


 Time of computation ->  20251125.040000      in sec:     187200.
 not possible to compute, first iteration


 Time of computation ->  20251125.041500      in sec:     188100.
 not possible to compute, first iteration


 Time of computation ->  20251125.043000      in sec:     189000.
 not possible to compute, first iteration


 Time of computation ->  20251125.044500      in sec:     189900.
 not possible to compute, first iteration


 Time of computation ->  20251125.050000      in sec:     190800.
 not possible to compute, first iteration


 Time of computation ->  20251125.051500      in sec:     191700.
 not possible to compute, first iteration


 Time of computation ->  20251125.053000      in sec:     192600.
 not possible to compute, first iteration


 Time of computation ->  20251125.054500      in sec:     193500.
 not possible to compute, first iteration


 Time of computation ->  20251125.060000      in sec:     194400.
 not possible to compute, first iteration


 Time of computation ->  20251125.061500      in sec:     195300.
 Boundary data type TPAR processed, time:      205200.
 Boundary data type TPAR processed, time:      205200.
 not possible to compute, first iteration


 Time of computation ->  20251125.063000      in sec:     196200.
 not possible to compute, first iteration


 Time of computation ->  20251125.064500      in sec:     197100.
 not possible to compute, first iteration


 Time of computation ->  20251125.070000      in sec:     198000.
 not possible to compute, first iteration


 Time of computation ->  20251125.071500      in sec:     198900.
 not possible to compute, first iteration


 Time of computation ->  20251125.073000      in sec:     199800.
 not possible to compute, first iteration


 Time of computation ->  20251125.074500      in sec:     200700.
 not possible to compute, first iteration


 Time of computation ->  20251125.080000      in sec:     201600.
 not possible to compute, first iteration


 Time of computation ->  20251125.081500      in sec:     202500.
 not possible to compute, first iteration


 Time of computation ->  20251125.083000      in sec:     203400.
 not possible to compute, first iteration


 Time of computation ->  20251125.084500      in sec:     204300.
 not possible to compute, first iteration


 Time of computation ->  20251125.090000      in sec:     205200.
 not possible to compute, first iteration


 Time of computation ->  20251125.091500      in sec:     206100.
 Boundary data type TPAR processed, time:      216000.
 Boundary data type TPAR processed, time:      216000.
 not possible to compute, first iteration


 Time of computation ->  20251125.093000      in sec:     207000.
 not possible to compute, first iteration


 Time of computation ->  20251125.094500      in sec:     207900.
 not possible to compute, first iteration


 Time of computation ->  20251125.100000      in sec:     208800.
 not possible to compute, first iteration


 Time of computation ->  20251125.101500      in sec:     209700.
 not possible to compute, first iteration


 Time of computation ->  20251125.103000      in sec:     210600.
 not possible to compute, first iteration


 Time of computation ->  20251125.104500      in sec:     211500.
 not possible to compute, first iteration


 Time of computation ->  20251125.110000      in sec:     212400.
 not possible to compute, first iteration


 Time of computation ->  20251125.111500      in sec:     213300.
 not possible to compute, first iteration


 Time of computation ->  20251125.113000      in sec:     214200.
 not possible to compute, first iteration


 Time of computation ->  20251125.114500      in sec:     215100.
 not possible to compute, first iteration


 Time of computation ->  20251125.120000      in sec:     216000.
 not possible to compute, first iteration


 Time of computation ->  20251125.121500      in sec:     216900.
 Boundary data type TPAR processed, time:      226800.
 Boundary data type TPAR processed, time:      226800.
 not possible to compute, first iteration


 Time of computation ->  20251125.123000      in sec:     217800.
 not possible to compute, first iteration


 Time of computation ->  20251125.124500      in sec:     218700.
 not possible to compute, first iteration


 Time of computation ->  20251125.130000      in sec:     219600.
 not possible to compute, first iteration


 Time of computation ->  20251125.131500      in sec:     220500.
 not possible to compute, first iteration


 Time of computation ->  20251125.133000      in sec:     221400.
 not possible to compute, first iteration


 Time of computation ->  20251125.134500      in sec:     222300.
 not possible to compute, first iteration


 Time of computation ->  20251125.140000      in sec:     223200.
 not possible to compute, first iteration


 Time of computation ->  20251125.141500      in sec:     224100.
 not possible to compute, first iteration


 Time of computation ->  20251125.143000      in sec:     225000.
 not possible to compute, first iteration


 Time of computation ->  20251125.144500      in sec:     225900.
 not possible to compute, first iteration


 Time of computation ->  20251125.150000      in sec:     226800.
 not possible to compute, first iteration


 Time of computation ->  20251125.151500      in sec:     227700.
 Boundary data type TPAR processed, time:      237600.
 Boundary data type TPAR processed, time:      237600.
 not possible to compute, first iteration


 Time of computation ->  20251125.153000      in sec:     228600.
 not possible to compute, first iteration


 Time of computation ->  20251125.154500      in sec:     229500.
 not possible to compute, first iteration


 Time of computation ->  20251125.160000      in sec:     230400.
 not possible to compute, first iteration


 Time of computation ->  20251125.161500      in sec:     231300.
 not possible to compute, first iteration


 Time of computation ->  20251125.163000      in sec:     232200.
 not possible to compute, first iteration


 Time of computation ->  20251125.164500      in sec:     233100.
 not possible to compute, first iteration


 Time of computation ->  20251125.170000      in sec:     234000.
 not possible to compute, first iteration


 Time of computation ->  20251125.171500      in sec:     234900.
 not possible to compute, first iteration


 Time of computation ->  20251125.173000      in sec:     235800.
 not possible to compute, first iteration


 Time of computation ->  20251125.174500      in sec:     236700.
 not possible to compute, first iteration


 Time of computation ->  20251125.180000      in sec:     237600.
 not possible to compute, first iteration


 Time of computation ->  20251125.181500      in sec:     238500.
 Boundary data type TPAR processed, time:      248400.
 Boundary data type TPAR processed, time:      248400.
 not possible to compute, first iteration


 Time of computation ->  20251125.183000      in sec:     239400.
 not possible to compute, first iteration


 Time of computation ->  20251125.184500      in sec:     240300.
 not possible to compute, first iteration


 Time of computation ->  20251125.190000      in sec:     241200.
 not possible to compute, first iteration


 Time of computation ->  20251125.191500      in sec:     242100.
 not possible to compute, first iteration


 Time of computation ->  20251125.193000      in sec:     243000.
 not possible to compute, first iteration


 Time of computation ->  20251125.194500      in sec:     243900.
 not possible to compute, first iteration


 Time of computation ->  20251125.200000      in sec:     244800.
 not possible to compute, first iteration


 Time of computation ->  20251125.201500      in sec:     245700.
 not possible to compute, first iteration

  ** WARNING : Differences in wave height at the boundary
 Relative difference between input and computation >=   0.10
                         Hs[m]      Hs[m]      Hs[-]
     ix    iy  index   (input) (computed) (relative)
  --------------------------------------------------
    72    72   2839       0.71       0.62       0.12
    72    71   2838       0.71       0.62       0.12
    72    70   2837       0.71       0.62       0.12
    72    69   2836       0.71       0.62       0.12
    72    68   2835       0.71       0.62       0.12
    72    67   2834       0.71       0.61       0.13
    72    66   2833       0.71       0.61       0.13
    72    65   2832       0.71       0.62       0.13
    72    64   2831       0.71       0.62       0.13
    72    63   2830       0.71       0.62       0.13
    72    62   2829       0.71       0.62       0.12
    72    61   2828       0.71       0.62       0.12
    72    60   2827       0.71       0.62       0.12
    72    59   2826       0.71       0.62       0.12
    72    58   2825       0.71       0.62       0.12
    72    57   2824       0.71       0.62       0.12
    72    56   2823       0.71       0.62       0.12
    72    55   2822       0.71       0.62       0.12
    72    54   2821       0.71       0.62       0.12
    72    53   2820       0.71       0.62       0.12
    72    52   2819       0.71       0.62       0.12
    72    51   2818       0.71       0.62       0.12
    72    50   2817       0.71       0.62       0.12
    72    49   2816       0.71       0.62       0.12
    72    48   2815       0.71       0.62       0.12
    72    47   2814       0.71       0.62       0.12
    72    46   2813       0.71       0.62       0.12
    72    45   2812       0.71       0.62       0.12
    72    44   2811       0.71       0.62       0.12
    72    43   2810       0.71       0.62       0.12
    72    42   2809       0.71       0.62       0.12
    72    41   2808       0.71       0.62       0.12
    72    40   2807       0.71       0.62       0.12
    72    39   2806       0.71       0.62       0.12
    72    38   2805       0.71       0.62       0.12
    72    37   2804       0.71       0.62       0.12
    72    36   2803       0.71       0.62       0.12
    72    35   2802       0.71       0.62       0.12
    72    34   2801       0.71       0.63       0.11
    72    33   2800       0.71       0.63       0.11
    72    32   2799       0.71       0.63       0.11
    72    31   2798       0.71       0.63       0.11
    72    30   2797       0.71       0.63       0.11
    72    29   2796       0.71       0.63       0.10
    72    28   2795       0.71       0.63       0.10
    72    27   2794       0.71       0.63       0.10

 Time of computation ->  20251125.203000      in sec:     246600.
 not possible to compute, first iteration

  ** WARNING : Differences in wave height at the boundary
 Relative difference between input and computation >=   0.10
                         Hs[m]      Hs[m]      Hs[-]
     ix    iy  index   (input) (computed) (relative)
  --------------------------------------------------
    72    72   2839       0.71       0.56       0.20
    72    71   2838       0.71       0.56       0.20
    72    70   2837       0.71       0.56       0.20
    72    69   2836       0.71       0.56       0.20
    72    68   2835       0.71       0.56       0.20
    72    67   2834       0.71       0.56       0.21
    72    66   2833       0.71       0.56       0.21
    72    65   2832       0.71       0.56       0.21
    72    64   2831       0.71       0.56       0.20
    72    63   2830       0.71       0.56       0.20
    72    62   2829       0.71       0.56       0.20
    72    61   2828       0.71       0.56       0.20
    72    60   2827       0.71       0.56       0.20
    72    59   2826       0.71       0.56       0.20
    72    58   2825       0.71       0.56       0.20
    72    57   2824       0.71       0.56       0.20
    72    56   2823       0.71       0.56       0.20
    72    55   2822       0.71       0.56       0.20
    72    54   2821       0.71       0.56       0.20
    72    53   2820       0.71       0.56       0.20
    72    52   2819       0.71       0.56       0.20
    72    51   2818       0.71       0.56       0.20
    72    50   2817       0.71       0.56       0.20
    72    49   2816       0.71       0.56       0.20
    72    48   2815       0.71       0.56       0.20
    72    47   2814       0.71       0.56       0.20
    72    46   2813       0.71       0.56       0.20
    72    45   2812       0.71       0.56       0.20
    72    44   2811       0.71       0.56       0.20
    72    43   2810       0.71       0.56       0.20
    72    42   2809       0.71       0.57       0.20
    72    41   2808       0.71       0.57       0.20
    72    40   2807       0.71       0.57       0.20
    72    39   2806       0.71       0.57       0.20
    72    38   2805       0.71       0.57       0.20
    72    37   2804       0.71       0.57       0.20
    72    36   2803       0.71       0.57       0.19
    72    35   2802       0.71       0.57       0.19
    72    34   2801       0.71       0.57       0.19
    72    33   2800       0.71       0.58       0.18
    72    32   2799       0.71       0.58       0.18
    72    31   2798       0.71       0.58       0.18
    72    30   2797       0.71       0.58       0.18
    72    29   2796       0.71       0.58       0.17
    72    28   2795       0.71       0.58       0.17
    72    27   2794       0.71       0.59       0.17
    72    26   2793       0.71       0.59       0.17
    72    25   2792       0.71       0.59       0.16
    72    24   2791       0.71       0.59       0.16
    72    23   2790       0.71       0.59       0.16
    72    22   2789       0.71       0.60       0.15
    72    21   2788       0.71       0.60       0.15
    72    20   2787       0.71       0.60       0.15
    72    19   2786       0.71       0.61       0.14
    72    18   2785       0.71       0.61       0.13
    72    17   2784       0.71       0.61       0.13
    72    16   2783       0.71       0.62       0.12
    72    15   2782       0.71       0.62       0.12
    72    14   2781       0.71       0.63       0.11
    72    13   2780       0.71       0.63       0.11
    72    12   2779       0.71       0.63       0.10
    72    11   2778       0.71       0.63       0.10

 Time of computation ->  20251125.204500      in sec:     247500.
 not possible to compute, first iteration

  ** WARNING : Differences in wave height at the boundary
 Relative difference between input and computation >=   0.10
                         Hs[m]      Hs[m]      Hs[-]
     ix    iy  index   (input) (computed) (relative)
  --------------------------------------------------
    72    72   2839       0.71       0.49       0.30
    72    71   2838       0.71       0.49       0.31
    72    70   2837       0.71       0.49       0.31
    72    69   2836       0.71       0.49       0.31
    72    68   2835       0.71       0.49       0.31
    72    67   2834       0.71       0.48       0.32
    72    66   2833       0.71       0.48       0.32
    72    65   2832       0.71       0.49       0.31
    72    64   2831       0.71       0.49       0.31
    72    63   2830       0.71       0.49       0.31
    72    62   2829       0.71       0.49       0.31
    72    61   2828       0.71       0.49       0.31
    72    60   2827       0.71       0.49       0.31
    72    59   2826       0.71       0.49       0.31
    72    58   2825       0.71       0.49       0.31
    72    57   2824       0.71       0.49       0.31
    72    56   2823       0.71       0.49       0.31
    72    55   2822       0.71       0.49       0.31
    72    54   2821       0.71       0.49       0.31
    72    53   2820       0.71       0.49       0.31
    72    52   2819       0.71       0.49       0.31
    72    51   2818       0.71       0.49       0.31
    72    50   2817       0.71       0.49       0.31
    72    49   2816       0.71       0.49       0.31
    72    48   2815       0.71       0.49       0.30
    72    47   2814       0.71       0.49       0.30
    72    46   2813       0.71       0.49       0.30
    72    45   2812       0.71       0.49       0.30
    72    44   2811       0.71       0.49       0.30
    72    43   2810       0.71       0.49       0.30
    72    42   2809       0.71       0.49       0.30
    72    41   2808       0.71       0.49       0.30
    72    40   2807       0.71       0.49       0.30
    72    39   2806       0.71       0.49       0.30
    72    38   2805       0.71       0.49       0.30
    72    37   2804       0.71       0.50       0.30
    72    36   2803       0.71       0.50       0.29
    72    35   2802       0.71       0.50       0.29
    72    34   2801       0.71       0.51       0.28
    72    33   2800       0.71       0.51       0.28
    72    32   2799       0.71       0.51       0.27
    72    31   2798       0.71       0.51       0.27
    72    30   2797       0.71       0.52       0.27
    72    29   2796       0.71       0.52       0.26
    72    28   2795       0.71       0.52       0.26
    72    27   2794       0.71       0.52       0.26
    72    26   2793       0.71       0.53       0.25
    72    25   2792       0.71       0.53       0.25
    72    24   2791       0.71       0.53       0.24
    72    23   2790       0.71       0.54       0.24
    72    22   2789       0.71       0.54       0.23
    72    21   2788       0.71       0.54       0.23
    72    20   2787       0.71       0.55       0.22
    72    19   2786       0.71       0.55       0.21
    72    18   2785       0.71       0.56       0.20
    72    17   2784       0.71       0.57       0.20
    72    16   2783       0.71       0.57       0.19
    72    15   2782       0.71       0.58       0.18
    72    14   2781       0.71       0.59       0.17
    72    13   2780       0.71       0.59       0.16
    72    12   2779       0.71       0.60       0.15
    72    11   2778       0.71       0.60       0.15
    72    10   2777       0.71       0.60       0.15
    72     9   2776       0.71       0.61       0.14
    72     8   2775       0.71       0.62       0.12

 Time of computation ->  20251125.210000      in sec:     248400.
 not possible to compute, first iteration

  ** WARNING : Differences in wave height at the boundary
 Relative difference between input and computation >=   0.10
                         Hs[m]      Hs[m]      Hs[-]
     ix    iy  index   (input) (computed) (relative)
  --------------------------------------------------
    72    72   2839       0.70       0.43       0.39
    72    71   2838       0.70       0.41       0.42
    72    70   2837       0.70       0.40       0.43
    72    69   2836       0.70       0.40       0.43
    72    68   2835       0.70       0.40       0.43
    72    67   2834       0.70       0.39       0.44
    72    66   2833       0.70       0.40       0.44
    72    65   2832       0.70       0.40       0.43
    72    64   2831       0.70       0.40       0.43
    72    63   2830       0.70       0.40       0.43
    72    62   2829       0.70       0.40       0.43
    72    61   2828       0.70       0.40       0.43
    72    60   2827       0.70       0.40       0.43
    72    59   2826       0.70       0.40       0.43
    72    58   2825       0.70       0.40       0.43
    72    57   2824       0.70       0.40       0.43
    72    56   2823       0.70       0.40       0.43
    72    55   2822       0.70       0.40       0.43
    72    54   2821       0.70       0.40       0.42
    72    53   2820       0.70       0.40       0.42
    72    52   2819       0.70       0.40       0.42
    72    51   2818       0.70       0.41       0.42
    72    50   2817       0.70       0.41       0.42
    72    49   2816       0.70       0.41       0.42
    72    48   2815       0.70       0.41       0.42
    72    47   2814       0.70       0.41       0.42
    72    46   2813       0.70       0.41       0.42
    72    45   2812       0.70       0.41       0.42
    72    44   2811       0.70       0.41       0.42
    72    43   2810       0.70       0.41       0.42
    72    42   2809       0.70       0.41       0.42
    72    41   2808       0.70       0.41       0.41
    72    40   2807       0.70       0.41       0.41
    72    39   2806       0.70       0.41       0.41
    72    38   2805       0.70       0.41       0.41
    72    37   2804       0.70       0.42       0.41
    72    36   2803       0.70       0.42       0.40
    72    35   2802       0.70       0.43       0.39
    72    34   2801       0.70       0.43       0.39
    72    33   2800       0.70       0.44       0.38
    72    32   2799       0.70       0.44       0.37
    72    31   2798       0.70       0.44       0.37
    72    30   2797       0.70       0.45       0.36
    72    29   2796       0.70       0.45       0.36
    72    28   2795       0.70       0.45       0.35
    72    27   2794       0.70       0.46       0.35
    72    26   2793       0.70       0.46       0.34
    72    25   2792       0.70       0.47       0.34
    72    24   2791       0.70       0.47       0.33
    72    23   2790       0.70       0.47       0.33
    72    22   2789       0.70       0.48       0.32
    72    21   2788       0.70       0.48       0.31
    72    20   2787       0.70       0.49       0.30
    72    19   2786       0.70       0.50       0.29
    72    18   2785       0.70       0.51       0.28
    72    17   2784       0.70       0.51       0.27
    72    16   2783       0.70       0.52       0.26
    72    15   2782       0.70       0.53       0.24
    72    14   2781       0.70       0.54       0.23
    72    13   2780       0.70       0.55       0.22
    72    12   2779       0.70       0.56       0.21
    72    11   2778       0.70       0.56       0.21
    72    10   2777       0.70       0.56       0.21
    72     9   2776       0.70       0.56       0.20
    72     8   2775       0.70       0.58       0.17
    72     7   2774       0.70       0.60       0.14
    72     6   2773       0.70       0.62       0.12

 Time of computation ->  20251125.211500      in sec:     249300.
 Boundary data type TPAR processed, time:      259200.
 Boundary data type TPAR processed, time:      259200.
 not possible to compute, first iteration

  ** WARNING : Differences in wave height at the boundary
 Relative difference between input and computation >=   0.10
                         Hs[m]      Hs[m]      Hs[-]
     ix    iy  index   (input) (computed) (relative)
  --------------------------------------------------
    72    72   2839       0.70       0.43       0.39
    72    71   2838       0.70       0.41       0.42
    72    70   2837       0.70       0.40       0.43
    72    69   2836       0.70       0.40       0.43
    72    68   2835       0.70       0.40       0.43
    72    67   2834       0.70       0.39       0.44
    72    66   2833       0.70       0.40       0.44
    72    65   2832       0.70       0.40       0.43
    72    64   2831       0.70       0.40       0.43
    72    63   2830       0.70       0.40       0.43
    72    62   2829       0.70       0.40       0.43
    72    61   2828       0.70       0.40       0.43
    72    60   2827       0.70       0.40       0.43
    72    59   2826       0.70       0.40       0.43
    72    58   2825       0.70       0.40       0.43
    72    57   2824       0.70       0.40       0.42
    72    56   2823       0.70       0.40       0.42
    72    55   2822       0.70       0.40       0.42
    72    54   2821       0.70       0.41       0.42
    72    53   2820       0.70       0.41       0.42
    72    52   2819       0.70       0.41       0.42
    72    51   2818       0.70       0.41       0.42
    72    50   2817       0.70       0.41       0.42
    72    49   2816       0.70       0.41       0.42
    72    48   2815       0.70       0.41       0.42
    72    47   2814       0.70       0.41       0.42
    72    46   2813       0.70       0.41       0.42
    72    45   2812       0.70       0.41       0.41
    72    44   2811       0.70       0.41       0.41
    72    43   2810       0.70       0.41       0.41
    72    42   2809       0.70       0.41       0.41
    72    41   2808       0.70       0.41       0.41
    72    40   2807       0.70       0.42       0.41
    72    39   2806       0.70       0.42       0.41
    72    38   2805       0.70       0.42       0.40
    72    37   2804       0.70       0.42       0.40
    72    36   2803       0.70       0.43       0.39
    72    35   2802       0.70       0.43       0.39
    72    34   2801       0.70       0.44       0.38
    72    33   2800       0.70       0.44       0.37
    72    32   2799       0.70       0.45       0.36
    72    31   2798       0.70       0.45       0.36
    72    30   2797       0.70       0.45       0.35
    72    29   2796       0.70       0.46       0.35
    72    28   2795       0.70       0.46       0.34
    72    27   2794       0.70       0.47       0.34
    72    26   2793       0.70       0.47       0.33
    72    25   2792       0.70       0.48       0.32
    72    24   2791       0.70       0.48       0.32
    72    23   2790       0.70       0.49       0.31
    72    22   2789       0.70       0.49       0.30
    72    21   2788       0.70       0.50       0.29
    72    20   2787       0.70       0.50       0.28
    72    19   2786       0.70       0.51       0.27
    72    18   2785       0.70       0.52       0.26
    72    17   2784       0.70       0.53       0.25
    72    16   2783       0.70       0.54       0.23
    72    15   2782       0.70       0.55       0.21
    72    14   2781       0.70       0.56       0.20
    72    13   2780       0.70       0.57       0.18
    72    12   2779       0.70       0.58       0.17
    72    11   2778       0.70       0.58       0.17
    72    10   2777       0.70       0.58       0.18
[...]
    72    16   2783       1.12       0.86       0.23
    72    15   2782       1.12       0.89       0.21
    72    14   2781       1.12       0.91       0.18
    72    13   2780       1.12       0.93       0.16
    72    12   2779       1.12       0.96       0.14
    72    11   2778       1.12       0.95       0.15
    72    10   2777       1.12       0.93       0.17
    72     9   2776       1.12       0.92       0.17
    72     8   2775       1.12       0.95       0.15
    72     7   2774       1.12       0.99       0.11

 Time of computation ->  20251130.050000      in sec:     622800.
 not possible to compute, first iteration

  ** WARNING : Differences in wave height at the boundary
 Relative difference between input and computation >=   0.10
                         Hs[m]      Hs[m]      Hs[-]
     ix    iy  index   (input) (computed) (relative)
  --------------------------------------------------
    72    72   2839       1.11       0.64       0.42
    72    71   2838       1.11       0.60       0.46
    72    70   2837       1.11       0.60       0.46
    72    69   2836       1.11       0.60       0.46
    72    68   2835       1.11       0.59       0.47
    72    67   2834       1.11       0.57       0.49
    72    66   2833       1.11       0.57       0.49
    72    65   2832       1.11       0.59       0.47
    72    64   2831       1.11       0.59       0.47
    72    63   2830       1.11       0.59       0.47
    72    62   2829       1.11       0.59       0.47
    72    61   2828       1.11       0.59       0.47
    72    60   2827       1.11       0.59       0.47
    72    59   2826       1.11       0.59       0.47
    72    58   2825       1.11       0.59       0.47
    72    57   2824       1.11       0.60       0.47
    72    56   2823       1.11       0.60       0.46
    72    55   2822       1.11       0.60       0.46
    72    54   2821       1.11       0.60       0.46
    72    53   2820       1.11       0.60       0.46
    72    52   2819       1.11       0.60       0.46
    72    51   2818       1.11       0.60       0.46
    72    50   2817       1.11       0.60       0.46
    72    49   2816       1.11       0.60       0.46
    72    48   2815       1.11       0.60       0.46
    72    47   2814       1.11       0.60       0.46
    72    46   2813       1.11       0.61       0.46
    72    45   2812       1.11       0.61       0.46
    72    44   2811       1.11       0.61       0.45
    72    43   2810       1.11       0.61       0.45
    72    42   2809       1.11       0.61       0.45
    72    41   2808       1.11       0.61       0.45
    72    40   2807       1.11       0.61       0.45
    72    39   2806       1.11       0.62       0.45
    72    38   2805       1.11       0.62       0.45
    72    37   2804       1.11       0.62       0.44
    72    36   2803       1.11       0.63       0.44
    72    35   2802       1.11       0.64       0.43
    72    34   2801       1.11       0.65       0.42
    72    33   2800       1.11       0.66       0.41
    72    32   2799       1.11       0.67       0.40
    72    31   2798       1.11       0.67       0.40
    72    30   2797       1.11       0.68       0.39
    72    29   2796       1.11       0.69       0.38
    72    28   2795       1.11       0.70       0.38
    72    27   2794       1.11       0.70       0.37
    72    26   2793       1.11       0.71       0.36
    72    25   2792       1.11       0.72       0.35
    72    24   2791       1.11       0.73       0.34
    72    23   2790       1.11       0.74       0.34
    72    22   2789       1.11       0.75       0.33
    72    21   2788       1.11       0.76       0.32
    72    20   2787       1.11       0.77       0.31
    72    19   2786       1.11       0.79       0.29
    72    18   2785       1.11       0.81       0.27
    72    17   2784       1.11       0.83       0.25
    72    16   2783       1.11       0.86       0.23
    72    15   2782       1.11       0.88       0.21
    72    14   2781       1.11       0.91       0.18
    72    13   2780       1.11       0.93       0.16
    72    12   2779       1.11       0.96       0.14
    72    11   2778       1.11       0.95       0.15
    72    10   2777       1.11       0.93       0.17
    72     9   2776       1.11       0.92       0.17
    72     8   2775       1.11       0.95       0.15
    72     7   2774       1.11       0.99       0.11

 Time of computation ->  20251130.051500      in sec:     623700.
 not possible to compute, first iteration

  ** WARNING : Differences in wave height at the boundary
 Relative difference between input and computation >=   0.10
                         Hs[m]      Hs[m]      Hs[-]
     ix    iy  index   (input) (computed) (relative)
  --------------------------------------------------
    72    72   2839       1.11       0.64       0.42
    72    71   2838       1.11       0.60       0.46
    72    70   2837       1.11       0.60       0.46
    72    69   2836       1.11       0.60       0.46
    72    68   2835       1.11       0.59       0.47
    72    67   2834       1.11       0.57       0.49
    72    66   2833       1.11       0.57       0.49
    72    65   2832       1.11       0.58       0.47
    72    64   2831       1.11       0.59       0.47
    72    63   2830       1.11       0.59       0.47
    72    62   2829       1.11       0.59       0.47
    72    61   2828       1.11       0.59       0.47
    72    60   2827       1.11       0.59       0.47
    72    59   2826       1.11       0.59       0.47
    72    58   2825       1.11       0.59       0.47
    72    57   2824       1.11       0.59       0.47
    72    56   2823       1.11       0.59       0.47
    72    55   2822       1.11       0.60       0.46
    72    54   2821       1.11       0.60       0.46
    72    53   2820       1.11       0.60       0.46
    72    52   2819       1.11       0.60       0.46
    72    51   2818       1.11       0.60       0.46
    72    50   2817       1.11       0.60       0.46
    72    49   2816       1.11       0.60       0.46
    72    48   2815       1.11       0.60       0.46
    72    47   2814       1.11       0.60       0.46
    72    46   2813       1.11       0.60       0.46
    72    45   2812       1.11       0.61       0.46
    72    44   2811       1.11       0.61       0.45
    72    43   2810       1.11       0.61       0.45
    72    42   2809       1.11       0.61       0.45
    72    41   2808       1.11       0.61       0.45
    72    40   2807       1.11       0.61       0.45
    72    39   2806       1.11       0.61       0.45
    72    38   2805       1.11       0.62       0.45
    72    37   2804       1.11       0.62       0.44
    72    36   2803       1.11       0.63       0.44
    72    35   2802       1.11       0.64       0.43
    72    34   2801       1.11       0.65       0.42
    72    33   2800       1.11       0.66       0.41
    72    32   2799       1.11       0.66       0.40
    72    31   2798       1.11       0.67       0.40
    72    30   2797       1.11       0.68       0.39
    72    29   2796       1.11       0.69       0.38
    72    28   2795       1.11       0.69       0.38
    72    27   2794       1.11       0.70       0.37
    72    26   2793       1.11       0.71       0.36
    72    25   2792       1.11       0.72       0.35
    72    24   2791       1.11       0.73       0.35
    72    23   2790       1.11       0.74       0.34
    72    22   2789       1.11       0.75       0.33
    72    21   2788       1.11       0.76       0.32
    72    20   2787       1.11       0.77       0.31
    72    19   2786       1.11       0.79       0.29
    72    18   2785       1.11       0.81       0.27
    72    17   2784       1.11       0.83       0.26
    72    16   2783       1.11       0.85       0.23
    72    15   2782       1.11       0.88       0.21
    72    14   2781       1.11       0.91       0.18
    72    13   2780       1.11       0.93       0.16
    72    12   2779       1.11       0.95       0.14
    72    11   2778       1.11       0.95       0.15
    72    10   2777       1.11       0.93       0.17
    72     9   2776       1.11       0.92       0.18
    72     8   2775       1.11       0.95       0.15
    72     7   2774       1.11       0.99       0.11

 Time of computation ->  20251130.053000      in sec:     624600.
 not possible to compute, first iteration

  ** WARNING : Differences in wave height at the boundary
 Relative difference between input and computation >=   0.10
                         Hs[m]      Hs[m]      Hs[-]
     ix    iy  index   (input) (computed) (relative)
  --------------------------------------------------
    72    72   2839       1.11       0.64       0.42
    72    71   2838       1.11       0.60       0.46
    72    70   2837       1.11       0.60       0.46
    72    69   2836       1.11       0.59       0.46
    72    68   2835       1.11       0.59       0.47
    72    67   2834       1.11       0.57       0.49
    72    66   2833       1.11       0.57       0.49
    72    65   2832       1.11       0.58       0.48
    72    64   2831       1.11       0.59       0.47
    72    63   2830       1.11       0.59       0.47
    72    62   2829       1.11       0.59       0.47
    72    61   2828       1.11       0.59       0.47
    72    60   2827       1.11       0.59       0.47
    72    59   2826       1.11       0.59       0.47
    72    58   2825       1.11       0.59       0.47
    72    57   2824       1.11       0.59       0.47
    72    56   2823       1.11       0.59       0.47
    72    55   2822       1.11       0.59       0.47
    72    54   2821       1.11       0.59       0.46
    72    53   2820       1.11       0.60       0.46
    72    52   2819       1.11       0.60       0.46
    72    51   2818       1.11       0.60       0.46
    72    50   2817       1.11       0.60       0.46
    72    49   2816       1.11       0.60       0.46
    72    48   2815       1.11       0.60       0.46
    72    47   2814       1.11       0.60       0.46
    72    46   2813       1.11       0.60       0.46
    72    45   2812       1.11       0.60       0.46
    72    44   2811       1.11       0.61       0.46
    72    43   2810       1.11       0.61       0.45
    72    42   2809       1.11       0.61       0.45
    72    41   2808       1.11       0.61       0.45
    72    40   2807       1.11       0.61       0.45
    72    39   2806       1.11       0.61       0.45
    72    38   2805       1.11       0.61       0.45
    72    37   2804       1.11       0.62       0.45
    72    36   2803       1.11       0.62       0.44
    72    35   2802       1.11       0.63       0.43
    72    34   2801       1.11       0.65       0.42
    72    33   2800       1.11       0.66       0.41
    72    32   2799       1.11       0.66       0.40
    72    31   2798       1.11       0.67       0.40
    72    30   2797       1.11       0.68       0.39
    72    29   2796       1.11       0.69       0.38
    72    28   2795       1.11       0.69       0.38
    72    27   2794       1.11       0.70       0.37
    72    26   2793       1.11       0.71       0.36
    72    25   2792       1.11       0.72       0.35
    72    24   2791       1.11       0.73       0.35
    72    23   2790       1.11       0.74       0.34
    72    22   2789       1.11       0.75       0.33
    72    21   2788       1.11       0.76       0.32
    72    20   2787       1.11       0.77       0.31
    72    19   2786       1.11       0.79       0.29
    72    18   2785       1.11       0.81       0.27
    72    17   2784       1.11       0.83       0.26
    72    16   2783       1.11       0.85       0.23
    72    15   2782       1.11       0.88       0.21
    72    14   2781       1.11       0.91       0.18
    72    13   2780       1.11       0.93       0.16
    72    12   2779       1.11       0.95       0.14
    72    11   2778       1.11       0.95       0.15
    72    10   2777       1.11       0.93       0.17
    72     9   2776       1.11       0.92       0.18
    72     8   2775       1.11       0.95       0.15
    72     7   2774       1.11       0.98       0.11

 Time of computation ->  20251130.054500      in sec:     625500.
 not possible to compute, first iteration

  ** WARNING : Differences in wave height at the boundary
 Relative difference between input and computation >=   0.10
                         Hs[m]      Hs[m]      Hs[-]
     ix    iy  index   (input) (computed) (relative)
  --------------------------------------------------
    72    72   2839       1.11       0.64       0.42
    72    71   2838       1.11       0.60       0.46
    72    70   2837       1.11       0.59       0.46
    72    69   2836       1.11       0.59       0.47
    72    68   2835       1.11       0.59       0.47
    72    67   2834       1.11       0.57       0.49
    72    66   2833       1.11       0.57       0.49
    72    65   2832       1.11       0.58       0.48
    72    64   2831       1.11       0.59       0.47
    72    63   2830       1.11       0.59       0.47
    72    62   2829       1.11       0.59       0.47
    72    61   2828       1.11       0.59       0.47
    72    60   2827       1.11       0.59       0.47
    72    59   2826       1.11       0.59       0.47
    72    58   2825       1.11       0.59       0.47
    72    57   2824       1.11       0.59       0.47
    72    56   2823       1.11       0.59       0.47
    72    55   2822       1.11       0.59       0.47
    72    54   2821       1.11       0.59       0.47
    72    53   2820       1.11       0.59       0.46
    72    52   2819       1.11       0.59       0.46
    72    51   2818       1.11       0.60       0.46
    72    50   2817       1.11       0.60       0.46
    72    49   2816       1.11       0.60       0.46
    72    48   2815       1.11       0.60       0.46
    72    47   2814       1.11       0.60       0.46
    72    46   2813       1.11       0.60       0.46
    72    45   2812       1.11       0.60       0.46
    72    44   2811       1.11       0.60       0.46
    72    43   2810       1.11       0.60       0.45
    72    42   2809       1.11       0.61       0.45
    72    41   2808       1.11       0.61       0.45
    72    40   2807       1.11       0.61       0.45
    72    39   2806       1.11       0.61       0.45
    72    38   2805       1.11       0.61       0.45
    72    37   2804       1.11       0.61       0.45
    72    36   2803       1.11       0.62       0.44
    72    35   2802       1.11       0.63       0.43
    72    34   2801       1.11       0.64       0.42
    72    33   2800       1.11       0.65       0.41
    72    32   2799       1.11       0.66       0.40
    72    31   2798       1.11       0.67       0.40
    72    30   2797       1.11       0.68       0.39
    72    29   2796       1.11       0.68       0.38
    72    28   2795       1.11       0.69       0.38
    72    27   2794       1.11       0.70       0.37
    72    26   2793       1.11       0.71       0.36
    72    25   2792       1.11       0.72       0.35
    72    24   2791       1.11       0.72       0.35
    72    23   2790       1.11       0.73       0.34
    72    22   2789       1.11       0.74       0.33
    72    21   2788       1.11       0.75       0.32
    72    20   2787       1.11       0.77       0.31
    72    19   2786       1.11       0.79       0.29
    72    18   2785       1.11       0.81       0.27
    72    17   2784       1.11       0.82       0.26
    72    16   2783       1.11       0.85       0.23
    72    15   2782       1.11       0.88       0.21
    72    14   2781       1.11       0.90       0.18
    72    13   2780       1.11       0.93       0.16
    72    12   2779       1.11       0.95       0.14
    72    11   2778       1.11       0.95       0.15
    72    10   2777       1.11       0.92       0.17
    72     9   2776       1.11       0.91       0.18
    72     8   2775       1.11       0.95       0.15
    72     7   2774       1.11       0.98       0.11

 Time of computation ->  20251130.060000      in sec:     626400.
 not possible to compute, first iteration

  ** WARNING : Differences in wave height at the boundary
 Relative difference between input and computation >=   0.10
                         Hs[m]      Hs[m]      Hs[-]
     ix    iy  index   (input) (computed) (relative)
  --------------------------------------------------
    72    72   2839       1.11       0.64       0.43
    72    71   2838       1.11       0.60       0.46
    72    70   2837       1.11       0.59       0.47
    72    69   2836       1.11       0.59       0.47
    72    68   2835       1.11       0.58       0.47
    72    67   2834       1.11       0.57       0.49
    72    66   2833       1.11       0.57       0.49
    72    65   2832       1.11       0.58       0.48
    72    64   2831       1.11       0.58       0.47
    72    63   2830       1.11       0.59       0.47
    72    62   2829       1.11       0.59       0.47
    72    61   2828       1.11       0.59       0.47
    72    60   2827       1.11       0.59       0.47
    72    59   2826       1.11       0.59       0.47
    72    58   2825       1.11       0.59       0.47
    72    57   2824       1.11       0.59       0.47
    72    56   2823       1.11       0.59       0.47
    72    55   2822       1.11       0.59       0.47
    72    54   2821       1.11       0.59       0.47
    72    53   2820       1.11       0.59       0.47
    72    52   2819       1.11       0.59       0.46
    72    51   2818       1.11       0.59       0.46
    72    50   2817       1.11       0.59       0.46
    72    49   2816       1.11       0.60       0.46
    72    48   2815       1.11       0.60       0.46
    72    47   2814       1.11       0.60       0.46
    72    46   2813       1.11       0.60       0.46
    72    45   2812       1.11       0.60       0.46
    72    44   2811       1.11       0.60       0.46
    72    43   2810       1.11       0.60       0.46
    72    42   2809       1.11       0.60       0.45
    72    41   2808       1.11       0.61       0.45
    72    40   2807       1.11       0.61       0.45
    72    39   2806       1.11       0.61       0.45
    72    38   2805       1.11       0.61       0.45
    72    37   2804       1.11       0.61       0.45
    72    36   2803       1.11       0.62       0.44
    72    35   2802       1.11       0.63       0.43
    72    34   2801       1.11       0.64       0.42
    72    33   2800       1.11       0.65       0.41
    72    32   2799       1.11       0.66       0.41
    72    31   2798       1.11       0.67       0.40
    72    30   2797       1.11       0.67       0.39
    72    29   2796       1.11       0.68       0.38
    72    28   2795       1.11       0.69       0.38
    72    27   2794       1.11       0.70       0.37
    72    26   2793       1.11       0.71       0.36
    72    25   2792       1.11       0.71       0.36
    72    24   2791       1.11       0.72       0.35
    72    23   2790       1.11       0.73       0.34
    72    22   2789       1.11       0.74       0.33
    72    21   2788       1.11       0.75       0.32
    72    20   2787       1.11       0.77       0.31
    72    19   2786       1.11       0.78       0.29
    72    18   2785       1.11       0.81       0.27
    72    17   2784       1.11       0.82       0.26
    72    16   2783       1.11       0.85       0.23
    72    15   2782       1.11       0.88       0.21
    72    14   2781       1.11       0.90       0.19
    72    13   2780       1.11       0.93       0.16
    72    12   2779       1.11       0.95       0.14
    72    11   2778       1.11       0.94       0.15
    72    10   2777       1.11       0.92       0.17
    72     9   2776       1.11       0.91       0.18
    72     8   2775       1.11       0.94       0.15
    72     7   2774       1.11       0.98       0.11

    
 STOP
