1

                    Execution started at 20251122.014643         



                    ---------------------------------------
                                     SWAN
                    SIMULATION OF WAVES IN NEAR SHORE AREAS
                             VERSION NUMBER 41.51               
                    ---------------------------------------


    
 $ SWAN INPUT FILE: ARUGAM BAY TRANSECT
    
 PROJECT 'ARUGAM_BAY' '1'
    
 MODE STATIONARY
    
 COORDINATES SPHERICAL
    
 
    
 $ 1. GRID
    
 CGRID REGULAR 81.702083 6.702083 0.0 0.2958 0.2958 71 71 CIRCLE 36 0.05 1.0 24
 Resolution in sigma-space: df/f =  0.1329
    
 
    
 $ 2. BATHYMETRY
    
 INPGRID BOTTOM 81.702083 6.702083 0.0 71 71 0.004167 0.004167 EXC -99
    
 READGRID BOTTOM 1 'arugam.bot' 1 0 FREE
 ** Warning          : Point removed from computational grid
Point with index (    25,    72) was removed from computational grid, because it is part of a 1D configuration or 1D connection.
 ** Warning          : Point removed from computational grid
Point with index (    30,    53) was removed from computational grid because it is an isolated wet point or is part of a 1D configuration or 1D connection.
 ** Warning          : Point removed from computational grid
Point with index (    30,    47) was removed from computational grid because it is an isolated wet point or is part of a 1D configuration or 1D connection.
 ** Warning          : Point removed from computational grid
Point with index (    40,     7) was removed from computational grid because it is an isolated wet point or is part of a 1D configuration or 1D connection.
 ** Warning          : Point removed from computational grid
Point with index (    28,    32) was removed from computational grid, because it is part of a 1D configuration or 1D connection.
 ** Warning          : Point removed from computational grid
Point with index (    29,    33) was removed from computational grid, because it is part of a 1D configuration or 1D connection.
 ** Warning          : Point removed from computational grid
Point with index (    29,    34) was removed from computational grid, because it is part of a 1D configuration or 1D connection.
 ** Warning          : Point removed from computational grid
Point with index (    29,    57) was removed from computational grid, because it is part of a 1D configuration or 1D connection.
 ** Warning          : Point removed from computational grid
Point with index (    30,    33) was removed from computational grid, because it is part of a 1D configuration or 1D connection.
 ** Warning          : Point removed from computational grid
Point with index (    33,    26) was removed from computational grid, because it is part of a 1D configuration or 1D connection.
 ** Warning          : Point removed from computational grid
Point with index (    34,    25) was removed from computational grid, because it is part of a 1D configuration or 1D connection.
 ** Warning          : Point removed from computational grid
Point with index (    36,     2) was removed from computational grid, because it is part of a 1D configuration or 1D connection.
 ** Warning          : Point removed from computational grid
Point with index (    37,     2) was removed from computational grid, because it is part of a 1D configuration or 1D connection.
 ** Warning          : Point removed from computational grid
Point with index (    39,     3) was removed from computational grid, because it is part of a 1D configuration or 1D connection.
 ** Warning          : Point removed from computational grid
Point with index (    39,     4) was removed from computational grid, because it is part of a 1D configuration or 1D connection.
 ** Warning          : Point removed from computational grid
Point with index (    39,    11) was removed from computational grid, because it is part of a 1D configuration or 1D connection.
    
 
    
 $ 3. BOUNDARIES (Restoring NORTH boundary to fix shadowing)
    
 BOUND SHAPE JONSWAP 3.3 PEAK DSPR DEGREES
    
 BOUNDSPEC SIDE EAST CONSTANT PAR 1.42 7.22 69.9 30
    
 BOUNDSPEC SIDE NORTH CONSTANT PAR 1.42 7.22 69.9 30
    
 
    
 $ 4. PHYSICS
    
 BREAKING CONSTANT 1.0 0.73
    
 FRICTION JONSWAP CONSTANT 0.067
    
 TRIADS
    
 OFF QUAD
    
 
    
 $ 5. NUMERICS
    
 PROP BSBT
    
 NUMERIC STOPC 0.005 0.005 0.005 95. STAT 15
    
 
    
 $ 6. OUTPUTS: THE TRANSECT
    
 $ We define 3 points approaching the shore along Latitude 6.84
    
 
    
 $ Point 1: DEEP OCEAN (Edge of grid)
    
 POINTS 'DEEP' 81.9800 6.8400
    
 
    
 $ Point 2: MID SHELF (Approaching)
    
 POINTS 'MID'  81.9000 6.8400
    
 
    
 $ Point 3: SURF ZONE (Just off the point)
    
 POINTS 'SURF' 81.8420 6.8400
    
 
    
 $ Output all 3 points to the table
    
 TABLE 'DEEP' 'MID' 'SURF' HEAD 'arugam_forecast.tbl' HS TPS DIR DEPTH QB
 ** Error            : Data field skipped:SURF                                                                                                                                                                                
 ** Error            : Illegal keyword: HEAD    
 ** Error            : Data field skipped:arugam_forecast.tbl                                                                                                                                                                 
 ** Error            : Illegal keyword: HS      
 ** Error            : Illegal keyword: TPS     
 ** Error            : Illegal keyword: DIR     
 ** Error            : Illegal keyword: DEPTH   
 ** Error            : Illegal keyword: QB      
    
 
    
 TEST 1,0
    
 COMPUTE
 ** Warning          : Activate wind option Yan (1987) in case of
 ** Warning          : Alves & Banner (2003) white-capping method
 ** Warning          : Limiter is de-activated in case of no quadruplets
 ** No start of computation because of error level:  3
 ** To ignore this error, change [maxerr] with the SET command
    
 STOP
